pglib_opf_case2000_tamu/pglib_opf_case2000_tamu_12regions.m
% -------------------------------------------------------------------------
% Partitioned MATPOWER Case File
% Copyright (c) 2025 Milad Hasanzadeh
% Generated on: 2025-06-21
% This file contains partitioned data for 12 regions


% -------------------- mpc_regionR1 --------------------

mpc_regionR1.version = '2';
mpc_regionR1.baseMVA = 100.0000;
mpc_regionR1.bus = [
%	bus_i       type        Pd          Qd          Gs          Bs          area        Vm          Va          baseKV      zone        Vmax        Vmin        
	 1	 1	 0	 0	 0	 0	 6	 1	 0	 500	 25	 1.1	 0.9;
	 2	 1	 82.48	 23.37	 0	 0	 6	 1	 0	 115	 25	 1.1	 0.9;
	 3	 1	 5.64	 1.6	 0	 63.25	 6	 1	 0	 115	 25	 1.1	 0.9;
	 4	 1	 2.66	 0.75	 0	 0	 6	 1	 0	 115	 25	 1.1	 0.9;
	 5	 1	 6.3	 1.79	 0	 0	 6	 1	 0	 115	 25	 1.1	 0.9;
	 6	 1	 0	 0	 0	 0	 7	 1	 0	 500	 4	 1.1	 0.9;
	 7	 1	 0	 0	 0	 0	 7	 1	 0	 230	 4	 1.1	 0.9;
	 8	 1	 221.92	 62.88	 0	 0	 7	 1	 0	 115	 4	 1.1	 0.9;
	 9	 2	 0	 0	 0	 0	 7	 1	 0	 13.8	 4	 1.1	 0.9;
	 10	 2	 0	 0	 0	 0	 7	 1	 0	 13.8	 4	 1.1	 0.9;
	 11	 2	 0	 0	 0	 0	 7	 1	 0	 13.8	 4	 1.1	 0.9;
	 12	 2	 0	 0	 0	 0	 7	 1	 0	 13.8	 4	 1.1	 0.9;
	 13	 2	 0	 0	 0	 0	 7	 1	 0	 13.8	 4	 1.1	 0.9;
	 14	 1	 15.65	 4.43	 0	 0	 7	 1	 0	 115	 5	 1.1	 0.9;
	 15	 1	 35.79	 10.14	 0	 0	 7	 1	 0	 115	 5	 1.1	 0.9;
	 16	 1	 0.94	 0.27	 0	 0	 7	 1	 0	 115	 3	 1.1	 0.9;
	 17	 1	 138.05	 39.11	 0	 0	 7	 1	 0	 115	 5	 1.1	 0.9;
	 18	 1	 52.81	 14.96	 0	 0	 7	 1	 0	 115	 4	 1.1	 0.9;
	 19	 2	 0	 0	 0	 0	 7	 1	 0	 18	 4	 1.1	 0.9;
	 20	 1	 85.56	 24.24	 0	 0	 7	 1	 0	 115	 4	 1.1	 0.9;
	 21	 1	 135.83	 38.48	 0	 0	 7	 1	 0	 115	 3	 1.1	 0.9;
	 22	 1	 43.39	 12.29	 0	 0	 7	 1	 0	 115	 4	 1.1	 0.9;
	 23	 1	 109.22	 30.95	 0	 0	 7	 1	 0	 115	 5	 1.1	 0.9;
	 24	 1	 77.01	 21.82	 0	 481.69	 7	 1	 0	 115	 3	 1.1	 0.9;
	 25	 1	 0	 0	 0	 0	 7	 1	 0	 230	 5	 1.1	 0.9;
	 26	 1	 92.31	 26.15	 0	 0	 7	 1	 0	 115	 5	 1.1	 0.9;
	 27	 1	 0	 0	 0	 0	 7	 1	 0	 500	 3	 1.1	 0.9;
	 28	 1	 0	 0	 0	 0	 7	 1	 0	 230	 3	 1.1	 0.9;
	 29	 1	 235.5	 66.73	 0	 0	 7	 1	 0	 115	 3	 1.1	 0.9;
	 30	 1	 0	 0	 0	 0	 7	 1	 0	 230	 4	 1.1	 0.9;
	 31	 1	 93.88	 26.6	 0	 0	 7	 1	 0	 115	 4	 1.1	 0.9;
	 32	 1	 0	 0	 0	 0	 7	 1	 0	 500	 3	 1.1	 0.9;
	 33	 1	 0	 0	 0	 0	 7	 1	 0	 230	 3	 1.1	 0.9;
	 34	 1	 283.15	 80.22	 0	 0	 7	 1	 0	 115	 3	 1.1	 0.9;
	 35	 1	 72.03	 20.41	 0	 0	 7	 1	 0	 115	 5	 1.1	 0.9;
	 36	 1	 140.79	 39.89	 0	 0	 7	 1	 0	 115	 3	 1.1	 0.9;
	 37	 1	 106.66	 30.22	 0	 0	 7	 1	 0	 115	 3	 1.1	 0.9;
	 38	 1	 105.96	 30.02	 0	 0	 7	 1	 0	 115	 3	 1.1	 0.9;
	 39	 1	 92.85	 26.31	 0	 0	 7	 1	 0	 115	 4	 1.1	 0.9;
	 40	 1	 98.08	 27.79	 0	 0	 7	 1	 0	 115	 3	 1.1	 0.9;
	 41	 1	 0	 0	 0	 0	 7	 1	 0	 230	 5	 1.1	 0.9;
	 42	 1	 106.11	 30.06	 0	 0	 7	 1	 0	 115	 5	 1.1	 0.9;
	 43	 1	 82.69	 23.43	 0	 0	 7	 1	 0	 115	 3	 1.1	 0.9;
	 44	 1	 0	 0	 0	 0	 7	 1	 0	 230	 1	 1.1	 0.9;
	 45	 1	 51.16	 14.5	 0	 0	 7	 1	 0	 115	 1	 1.1	 0.9;
	 46	 1	 101.03	 28.63	 0	 0	 7	 1	 0	 115	 4	 1.1	 0.9;
	 47	 1	 116.42	 32.99	 0	 0	 7	 1	 0	 115	 4	 1.1	 0.9;
	 48	 1	 0	 0	 0	 0	 7	 1	 0	 230	 2	 1.1	 0.9;
	 49	 1	 69.13	 19.59	 0	 0	 7	 1	 0	 115	 2	 1.1	 0.9;
	 50	 1	 160.86	 45.58	 0	 342.5	 7	 1	 0	 115	 4	 1.1	 0.9;
	 51	 1	 0	 0	 0	 0	 7	 1	 0	 500	 4	 1.1	 0.9;
	 52	 1	 0	 0	 0	 0	 7	 1	 0	 230	 4	 1.1	 0.9;
	 53	 1	 0	 0	 0	 0	 7	 1	 0	 115	 4	 1.1	 0.9;
	 54	 2	 0	 0	 0	 0	 7	 1	 0	 13.8	 4	 1.1	 0.9;
	 55	 2	 0	 0	 0	 0	 7	 1	 0	 13.8	 4	 1.1	 0.9;
	 56	 2	 0	 0	 0	 0	 7	 1	 0	 13.8	 4	 1.1	 0.9;
	 57	 2	 0	 0	 0	 0	 7	 1	 0	 13.8	 4	 1.1	 0.9;
	 58	 1	 0	 0	 0	 0	 7	 1	 0	 230	 4	 1.1	 0.9;
	 59	 1	 214.74	 60.84	 0	 0	 7	 1	 0	 115	 4	 1.1	 0.9;
	 60	 1	 4.1	 1.16	 0	 0	 7	 1	 0	 115	 2	 1.1	 0.9;
	 61	 1	 53.44	 15.14	 0	 0	 7	 1	 0	 115	 4	 1.1	 0.9;
	 62	 1	 74.22	 21.03	 0	 0	 7	 1	 0	 115	 3	 1.1	 0.9;
	 63	 1	 101.05	 28.63	 0	 0	 7	 1	 0	 115	 3	 1.1	 0.9;
	 64	 1	 70.07	 19.85	 0	 316.53	 7	 1	 0	 115	 3	 1.1	 0.9;
	 65	 1	 13.8	 3.91	 0	 0	 7	 1	 0	 115	 5	 1.1	 0.9;
	 66	 1	 210.68	 59.69	 0	 292.93	 7	 1	 0	 115	 3	 1.1	 0.9;
	 67	 1	 39.23	 11.11	 0	 0	 7	 1	 0	 115	 3	 1.1	 0.9;
	 68	 1	 109.15	 30.93	 0	 0	 7	 1	 0	 115	 3	 1.1	 0.9;
	 69	 1	 76.69	 21.73	 0	 0	 7	 1	 0	 115	 3	 1.1	 0.9;
	 70	 1	 62.16	 17.61	 0	 0	 7	 1	 0	 115	 4	 1.1	 0.9;
	 71	 1	 212.51	 60.21	 0	 0	 7	 1	 0	 115	 3	 1.1	 0.9;
	 72	 1	 118.05	 33.45	 0	 0	 7	 1	 0	 115	 5	 1.1	 0.9;
	 73	 1	 58.64	 16.61	 0	 0	 7	 1	 0	 115	 4	 1.1	 0.9;
	 74	 1	 0	 0	 0	 0	 7	 1	 0	 500	 4	 1.1	 0.9;
	 75	 1	 0	 0	 0	 0	 7	 1	 0	 230	 4	 1.1	 0.9;
	 76	 1	 92.07	 26.09	 0	 0	 7	 1	 0	 115	 4	 1.1	 0.9;
	 77	 2	 0	 0	 0	 0	 7	 1	 0	 24	 4	 1.1	 0.9;
	 78	 2	 0	 0	 0	 0	 7	 1	 0	 24	 4	 1.1	 0.9;
	 79	 2	 0	 0	 0	 0	 7	 1	 0	 24	 4	 1.1	 0.9;
	 80	 2	 0	 0	 0	 0	 7	 1	 0	 24	 4	 1.1	 0.9;
	 81	 2	 0	 0	 0	 0	 7	 1	 0	 24	 4	 1.1	 0.9;
	 82	 2	 0	 0	 0	 0	 7	 1	 0	 24	 4	 1.1	 0.9;
	 83	 2	 0	 0	 0	 0	 7	 1	 0	 24	 4	 1.1	 0.9;
	 84	 2	 0	 0	 0	 0	 7	 1	 0	 24	 4	 1.1	 0.9;
	 85	 2	 0	 0	 0	 0	 7	 1	 0	 24	 4	 1.1	 0.9;
	 86	 1	 12.16	 3.45	 0	 0	 7	 1	 0	 115	 1	 1.1	 0.9;
	 87	 1	 84.03	 23.81	 0	 0	 7	 1	 0	 115	 3	 1.1	 0.9;
	 88	 1	 121.15	 34.33	 0	 0	 7	 1	 0	 115	 5	 1.1	 0.9;
	 89	 1	 49.7	 14.08	 0	 0	 7	 1	 0	 115	 4	 1.1	 0.9;
	 90	 1	 149.7	 42.41	 0	 0	 7	 1	 0	 115	 3	 1.1	 0.9;
	 91	 2	 0	 0	 0	 0	 7	 1	 0	 18	 3	 1.1	 0.9;
	 92	 2	 0	 0	 0	 0	 7	 1	 0	 18	 3	 1.1	 0.9;
	 93	 1	 164.66	 46.65	 0	 0	 7	 1	 0	 115	 3	 1.1	 0.9;
	 94	 1	 0	 0	 0	 0	 7	 1	 0	 500	 3	 1.1	 0.9;
	 95	 1	 0	 0	 0	 0	 7	 1	 0	 230	 3	 1.1	 0.9;
	 96	 1	 223.54	 63.34	 0	 0	 7	 1	 0	 115	 3	 1.1	 0.9;
	 97	 1	 63.94	 18.12	 0	 0	 7	 1	 0	 115	 5	 1.1	 0.9;
	 98	 1	 0	 0	 0	 0	 7	 1	 0	 500	 4	 1.1	 0.9;
	 99	 1	 0	 0	 0	 0	 7	 1	 0	 230	 4	 1.1	 0.9;
	 100	 1	 72.75	 20.61	 0	 0	 7	 1	 0	 115	 4	 1.1	 0.9;
	 101	 2	 0	 0	 0	 0	 7	 1	 0	 13.8	 4	 1.1	 0.9;
	 102	 2	 0	 0	 0	 0	 7	 1	 0	 13.8	 4	 1.1	 0.9;
	 103	 2	 0	 0	 0	 0	 7	 1	 0	 13.8	 4	 1.1	 0.9;
	 104	 2	 0	 0	 0	 0	 7	 1	 0	 13.8	 4	 1.1	 0.9;
	 105	 2	 0	 0	 0	 0	 7	 1	 0	 13.8	 4	 1.1	 0.9;
	 106	 2	 0	 0	 0	 0	 7	 1	 0	 13.8	 4	 1.1	 0.9;
	 107	 2	 0	 0	 0	 0	 7	 1	 0	 13.8	 4	 1.1	 0.9;
	 108	 2	 0	 0	 0	 0	 7	 1	 0	 13.8	 4	 1.1	 0.9;
	 109	 2	 0	 0	 0	 0	 7	 1	 0	 13.8	 4	 1.1	 0.9;
	 110	 2	 0	 0	 0	 0	 7	 1	 0	 13.8	 4	 1.1	 0.9;
	 111	 1	 59.96	 16.99	 0	 0	 7	 1	 0	 115	 5	 1.1	 0.9;
	 112	 1	 97.68	 27.68	 0	 0	 7	 1	 0	 115	 4	 1.1	 0.9;
	 113	 1	 143.78	 40.74	 0	 288.02	 7	 1	 0	 115	 4	 1.1	 0.9;
	 114	 2	 0	 0	 0	 0	 7	 1	 0	 13.8	 4	 1.1	 0.9;
	 115	 1	 47.29	 13.4	 0	 0	 7	 1	 0	 115	 3	 1.1	 0.9;
	 116	 1	 59.46	 16.85	 0	 0	 7	 1	 0	 115	 3	 1.1	 0.9;
	 117	 1	 0	 0	 0	 125.49	 7	 1	 0	 230	 5	 1.1	 0.9;
	 118	 1	 44.05	 12.48	 0	 0	 7	 1	 0	 115	 5	 1.1	 0.9;
	 119	 1	 3.59	 1.02	 0	 0	 7	 1	 0	 115	 3	 1.1	 0.9;
	 120	 1	 58.6	 16.6	 0	 0	 7	 1	 0	 115	 5	 1.1	 0.9;
	 121	 1	 78.41	 22.22	 0	 0	 7	 1	 0	 115	 3	 1.1	 0.9;
	 122	 1	 0	 0	 0	 0	 7	 1	 0	 230	 5	 1.1	 0.9;
	 123	 1	 163.83	 46.42	 0	 0	 7	 1	 0	 115	 5	 1.1	 0.9;
	 124	 1	 78.37	 22.2	 0	 0	 7	 1	 0	 115	 4	 1.1	 0.9;
	 125	 1	 0	 0	 0	 0	 7	 1	 0	 500	 3	 1.1	 0.9;
	 126	 1	 0	 0	 0	 0	 7	 1	 0	 230	 3	 1.1	 0.9;
	 127	 1	 137.54	 38.97	 0	 0	 7	 1	 0	 115	 3	 1.1	 0.9;
	 128	 2	 0	 0	 0	 0	 7	 1	 0	 18	 3	 1.1	 0.9;
	 129	 2	 0	 0	 0	 0	 7	 1	 0	 18	 3	 1.1	 0.9;
	 130	 2	 0	 0	 0	 0	 7	 1	 0	 18	 3	 1.1	 0.9;
	 131	 2	 0	 0	 0	 0	 7	 1	 0	 18	 3	 1.1	 0.9;
	 132	 2	 0	 0	 0	 0	 7	 1	 0	 18	 3	 1.1	 0.9;
	 133	 2	 0	 0	 0	 0	 7	 1	 0	 18	 3	 1.1	 0.9;
	 134	 2	 0	 0	 0	 0	 7	 1	 0	 18	 3	 1.1	 0.9;
	 135	 2	 0	 0	 0	 0	 7	 1	 0	 18	 3	 1.1	 0.9;
	 136	 2	 0	 0	 0	 0	 7	 1	 0	 18	 3	 1.1	 0.9;
	 137	 1	 0	 0	 0	 0	 7	 1	 0	 230	 2	 1.1	 0.9;
	 138	 1	 91.12	 25.82	 0	 0	 7	 1	 0	 115	 2	 1.1	 0.9;
	 139	 1	 112.54	 31.89	 0	 0	 7	 1	 0	 115	 4	 1.1	 0.9;
	 140	 1	 124.67	 35.32	 0	 0	 7	 1	 0	 115	 4	 1.1	 0.9;
	 141	 1	 0	 0	 0	 0	 7	 1	 0	 500	 5	 1.1	 0.9;
	 142	 1	 0	 0	 0	 0	 7	 1	 0	 230	 5	 1.1	 0.9;
	 143	 1	 211.63	 59.96	 0	 0	 7	 1	 0	 115	 5	 1.1	 0.9;
	 144	 1	 122.49	 34.71	 0	 0	 7	 1	 0	 115	 3	 1.1	 0.9;
	 145	 1	 58.29	 16.52	 0	 0	 7	 1	 0	 115	 3	 1.1	 0.9;
	 146	 1	 91.45	 25.91	 0	 0	 7	 1	 0	 115	 3	 1.1	 0.9;
	 147	 1	 148.98	 42.21	 0	 0	 7	 1	 0	 115	 3	 1.1	 0.9;
	 148	 1	 2.07	 0.59	 0	 0	 7	 1	 0	 115	 3	 1.1	 0.9;
	 149	 1	 215.91	 61.17	 0	 402	 7	 1	 0	 115	 3	 1.1	 0.9;
	 150	 1	 0	 0	 0	 0	 7	 1	 0	 230	 3	 1.1	 0.9;
	 151	 1	 168.93	 47.86	 0	 0	 7	 1	 0	 115	 3	 1.1	 0.9;
	 152	 1	 0	 0	 0	 0	 7	 1	 0	 500	 3	 1.1	 0.9;
	 153	 1	 0	 0	 0	 0	 7	 1	 0	 230	 3	 1.1	 0.9;
	 154	 1	 76.58	 21.7	 0	 0	 7	 1	 0	 115	 3	 1.1	 0.9;
	 155	 2	 0	 0	 0	 0	 7	 1	 0	 13.8	 3	 1.1	 0.9;
	 156	 2	 0	 0	 0	 0	 7	 1	 0	 13.8	 3	 1.1	 0.9;
	 157	 2	 0	 0	 0	 0	 7	 1	 0	 13.8	 3	 1.1	 0.9;
	 158	 2	 0	 0	 0	 0	 7	 1	 0	 13.8	 3	 1.1	 0.9;
	 159	 2	 0	 0	 0	 0	 7	 1	 0	 13.8	 3	 1.1	 0.9;
	 160	 2	 0	 0	 0	 0	 7	 1	 0	 13.8	 3	 1.1	 0.9;
	 161	 2	 0	 0	 0	 0	 7	 1	 0	 13.8	 3	 1.1	 0.9;
	 162	 2	 0	 0	 0	 0	 7	 1	 0	 13.8	 3	 1.1	 0.9;
	 163	 2	 0	 0	 0	 0	 7	 1	 0	 13.8	 3	 1.1	 0.9;
	 164	 1	 86.12	 24.4	 0	 206.64	 7	 1	 0	 115	 5	 1.1	 0.9;
	 165	 1	 0	 0	 0	 0	 7	 1	 0	 500	 5	 1.1	 0.9;
	 166	 1	 0	 0	 0	 0	 7	 1	 0	 230	 5	 1.1	 0.9;
	 167	 1	 216.79	 61.42	 0	 0	 7	 1	 0	 115	 5	 1.1	 0.9;
	 168	 1	 35.93	 10.18	 0	 0	 7	 1	 0	 115	 5	 1.1	 0.9;
	 169	 1	 20.55	 5.82	 0	 0	 7	 1	 0	 115	 1	 1.1	 0.9;
	 170	 1	 0	 0	 0	 0	 7	 1	 0	 500	 4	 1.1	 0.9;
	 171	 1	 0	 0	 0	 0	 7	 1	 0	 230	 4	 1.1	 0.9;
	 172	 1	 0	 0	 0	 0	 7	 1	 0	 115	 4	 1.1	 0.9;
	 173	 2	 0	 0	 0	 0	 7	 1	 0	 18	 4	 1.1	 0.9;
	 174	 2	 0	 0	 0	 0	 7	 1	 0	 18	 4	 1.1	 0.9;
	 175	 2	 0	 0	 0	 0	 7	 1	 0	 18	 4	 1.1	 0.9;
	 176	 2	 0	 0	 0	 0	 7	 1	 0	 18	 4	 1.1	 0.9;
	 177	 2	 0	 0	 0	 0	 7	 1	 0	 18	 4	 1.1	 0.9;
	 178	 2	 0	 0	 0	 0	 7	 1	 0	 18	 4	 1.1	 0.9;
	 179	 1	 68.5	 19.41	 0	 0	 7	 1	 0	 115	 2	 1.1	 0.9;
	 180	 1	 83.89	 23.77	 0	 0	 7	 1	 0	 115	 3	 1.1	 0.9;
	 181	 1	 104.88	 29.72	 0	 0	 7	 1	 0	 115	 5	 1.1	 0.9;
	 182	 1	 92.56	 26.23	 0	 0	 7	 1	 0	 115	 3	 1.1	 0.9;
	 183	 1	 76.39	 21.64	 0	 0	 7	 1	 0	 115	 4	 1.1	 0.9;
	 184	 1	 48.11	 13.63	 0	 0	 7	 1	 0	 115	 5	 1.1	 0.9;
	 185	 1	 1.25	 0.36	 0	 0	 7	 1	 0	 115	 1	 1.1	 0.9;
	 186	 1	 141.27	 40.03	 0	 0	 7	 1	 0	 115	 3	 1.1	 0.9;
	 187	 1	 169.58	 48.05	 0	 0	 7	 1	 0	 115	 3	 1.1	 0.9;
	 188	 1	 86.99	 24.65	 0	 0	 7	 1	 0	 115	 3	 1.1	 0.9;
	 189	 1	 49.62	 14.06	 0	 0	 7	 1	 0	 115	 5	 1.1	 0.9;
	 190	 1	 30.77	 8.72	 0	 0	 7	 1	 0	 115	 3	 1.1	 0.9;
	 191	 1	 111.44	 31.57	 0	 0	 7	 1	 0	 115	 3	 1.1	 0.9;
	 192	 1	 45.25	 12.82	 0	 0	 7	 1	 0	 115	 3	 1.1	 0.9;
	 193	 1	 0	 0	 0	 0	 7	 1	 0	 500	 3	 1.1	 0.9;
	 194	 1	 0	 0	 0	 0	 7	 1	 0	 230	 3	 1.1	 0.9;
	 195	 1	 285.41	 80.87	 0	 0	 7	 1	 0	 115	 3	 1.1	 0.9;
	 196	 1	 7.37	 2.09	 0	 0	 7	 1	 0	 115	 1	 1.1	 0.9;
	 197	 1	 50.85	 14.41	 0	 0	 7	 1	 0	 115	 4	 1.1	 0.9;
	 198	 1	 42.92	 12.16	 0	 0	 7	 1	 0	 115	 2	 1.1	 0.9;
	 199	 1	 33.2	 9.41	 0	 0	 7	 1	 0	 115	 5	 1.1	 0.9;
	 200	 1	 77.31	 21.9	 0	 0	 7	 1	 0	 115	 5	 1.1	 0.9;
...
];

mpc_regionR1.gen = [
%	bus         Pg          Qg          Qmax        Qmin        Vg          mBase       status      Pmax        Pmin        Pc1         Pc2         Qc1min      Qc1max      Qc2min      Qc2max      ramp_agc    ramp_10     ramp_30     ramp_q      apf         
	 9	 105.95	 32.44	 82.97	-18.09	 1	 195.6	 1	 163	 48.9	 0	 0	 0	 0	 0	 0	 0	 0	 0	 0	 163;
	 10	 105.95	 32.44	 82.97	-18.09	 1	 195.6	 1	 163	 48.9	 0	 0	 0	 0	 0	 0	 0	 0	 0	 0	 163;
	 11	 105.95	 32.44	 82.97	-18.09	 1	 195.6	 1	 163	 48.9	 0	 0	 0	 0	 0	 0	 0	 0	 0	 0	 163;
	 12	 105.95	 32.44	 82.97	-18.09	 1	 195.6	 1	 163	 48.9	 0	 0	 0	 0	 0	 0	 0	 0	 0	 0	 163;
	 13	 105.95	 32.44	 82.97	-18.09	 1	 195.6	 1	 163	 48.9	 0	 0	 0	 0	 0	 0	 0	 0	 0	 0	 163;
	 19	 0	 0	 2.04	-0.44	 1	 4.8	 0	 4	 1.2	 0	 0	 0	 0	 0	 0	 0	 0	 0	 0	 4;
	 54	 148.62	 45.5	 116.38	-25.38	 1	 274.38	 1	 228.65	 68.59	 0	 0	 0	 0	 0	 0	 0	 0	 0	 0	 228.65;
	 55	 148.62	 45.5	 116.38	-25.38	 1	 274.38	 1	 228.65	 68.59	 0	 0	 0	 0	 0	 0	 0	 0	 0	 0	 228.65;
	 56	 148.62	 45.5	 116.38	-25.38	 1	 274.38	 1	 228.65	 68.59	 0	 0	 0	 0	 0	 0	 0	 0	 0	 0	 228.65;
	 57	 148.62	 45.5	 116.38	-25.38	 1	 274.38	 1	 228.65	 68.59	 0	 0	 0	 0	 0	 0	 0	 0	 0	 0	 228.65;
	 77	 97.5	 29.85	 76.35	-16.65	 1	 180	 1	 150	 45	 0	 0	 0	 0	 0	 0	 0	 0	 0	 0	 150;
	 78	 33.15	 10.15	 25.96	-5.66	 1	 61.2	 1	 51	 15.3	 0	 0	 0	 0	 0	 0	 0	 0	 0	 0	 51;
	 79	 33.15	 10.15	 25.96	-5.66	 1	 61.2	 1	 51	 15.3	 0	 0	 0	 0	 0	 0	 0	 0	 0	 0	 51;
	 80	 127.4	 39	 99.76	-21.76	 1	 235.2	 1	 196	 58.8	 0	 0	 0	 0	 0	 0	 0	 0	 0	 0	 196;
	 81	 127.4	 39	 99.76	-21.76	 1	 235.2	 1	 196	 58.8	 0	 0	 0	 0	 0	 0	 0	 0	 0	 0	 196;
	 82	 127.4	 39	 99.76	-21.76	 1	 235.2	 1	 196	 58.8	 0	 0	 0	 0	 0	 0	 0	 0	 0	 0	 196;
	 83	 127.4	 39	 99.76	-21.76	 1	 235.2	 1	 196	 58.8	 0	 0	 0	 0	 0	 0	 0	 0	 0	 0	 196;
	 84	 127.4	 39	 99.76	-21.76	 1	 235.2	 1	 196	 58.8	 0	 0	 0	 0	 0	 0	 0	 0	 0	 0	 196;
	 85	 127.4	 39	 99.76	-21.76	 1	 235.2	 1	 196	 58.8	 0	 0	 0	 0	 0	 0	 0	 0	 0	 0	 196;
	 91	 0	 0	 1.88	-0.41	 1	 4.44	 0	 3.7	 1.11	 0	 0	 0	 0	 0	 0	 0	 0	 0	 0	 3.7;
	 92	 0	 0	 2.19	-0.48	 1	 5.16	 0	 4.3	 1.29	 0	 0	 0	 0	 0	 0	 0	 0	 0	 0	 4.3;
	 101	 10.595	 3.245	 8.3	-1.81	 1	 19.56	 1	 16.3	 4.89	 0	 0	 0	 0	 0	 0	 0	 0	 0	 0	 16.3;
	 102	 134.26	 41.1	 105.13	-22.93	 1	 247.86	 1	 206.55	 61.97	 0	 0	 0	 0	 0	 0	 0	 0	 0	 0	 206.55;
	 103	 134.26	 41.1	 105.13	-22.93	 1	 247.86	 1	 206.55	 61.97	 0	 0	 0	 0	 0	 0	 0	 0	 0	 0	 206.55;
	 104	 134.26	 41.1	 105.13	-22.93	 1	 247.86	 1	 206.55	 61.97	 0	 0	 0	 0	 0	 0	 0	 0	 0	 0	 206.55;
	 105	 134.26	 41.1	 105.13	-22.93	 1	 247.86	 1	 206.55	 61.97	 0	 0	 0	 0	 0	 0	 0	 0	 0	 0	 206.55;
	 106	 247.455	 75.76	 193.78	-42.26	 1	 456.84	 1	 380.7	 114.21	 0	 0	 0	 0	 0	 0	 0	 0	 0	 0	 380.7;
	 107	 38.35	 11.74	 30.03	-6.55	 1	 70.8	 1	 59	 17.7	 0	 0	 0	 0	 0	 0	 0	 0	 0	 0	 59;
	 108	 38.35	 11.74	 30.03	-6.55	 1	 70.8	 1	 59	 17.7	 0	 0	 0	 0	 0	 0	 0	 0	 0	 0	 59;
	 109	 38.35	 11.74	 30.03	-6.55	 1	 70.8	 1	 59	 17.7	 0	 0	 0	 0	 0	 0	 0	 0	 0	 0	 59;
	 110	 38.35	 11.74	 30.03	-6.55	 1	 70.8	 1	 59	 17.7	 0	 0	 0	 0	 0	 0	 0	 0	 0	 0	 59;
	 114	 6.63	 2.03	 5.19	-1.13	 1	 12.24	 1	 10.2	 3.06	 0	 0	 0	 0	 0	 0	 0	 0	 0	 0	 10.2;
	 128	 71.89	 22.01	 56.3	-12.28	 1	 132.72	 1	 110.6	 33.18	 0	 0	 0	 0	 0	 0	 0	 0	 0	 0	 110.6;
	 129	 71.89	 22.01	 56.3	-12.28	 1	 132.72	 1	 110.6	 33.18	 0	 0	 0	 0	 0	 0	 0	 0	 0	 0	 110.6;
	 130	 71.89	 22.01	 56.3	-12.28	 1	 132.72	 1	 110.6	 33.18	 0	 0	 0	 0	 0	 0	 0	 0	 0	 0	 110.6;
	 131	 71.89	 22.01	 56.3	-12.28	 1	 132.72	 1	 110.6	 33.18	 0	 0	 0	 0	 0	 0	 0	 0	 0	 0	 110.6;
	 132	 71.89	 22.01	 56.3	-12.28	 1	 132.72	 1	 110.6	 33.18	 0	 0	 0	 0	 0	 0	 0	 0	 0	 0	 110.6;
	 133	 71.9	 22.01	 56.3	-12.28	 1	 132.72	 1	 110.6	 33.2	 0	 0	 0	 0	 0	 0	 0	 0	 0	 0	 110.6;
	 134	 57.02	 17.455	 44.65	-9.74	 1	 105.26	 1	 87.72	 26.32	 0	 0	 0	 0	 0	 0	 0	 0	 0	 0	 87.72;
	 135	 57.01	 17.455	 44.65	-9.74	 1	 105.26	 1	 87.72	 26.3	 0	 0	 0	 0	 0	 0	 0	 0	 0	 0	 87.72;
	 136	 228.065	 69.82	 178.59	-38.95	 1	 421.04	 1	 350.87	 105.26	 0	 0	 0	 0	 0	 0	 0	 0	 0	 0	 350.87;
	 155	 4.485	 1.37	 3.51	-0.77	 1	 8.28	 1	 6.9	 2.07	 0	 0	 0	 0	 0	 0	 0	 0	 0	 0	 6.9;
	 156	 31.2	 9.55	 24.43	-5.33	 1	 57.6	 1	 48	 14.4	 0	 0	 0	 0	 0	 0	 0	 0	 0	 0	 48;
	 157	 0	 0	 2.55	-0.55	 1	 6	 0	 5	 1.5	 0	 0	 0	 0	 0	 0	 0	 0	 0	 0	 5;
	 158	 22.75	 6.965	 17.81	-3.88	 1	 42	 1	 35	 10.5	 0	 0	 0	 0	 0	 0	 0	 0	 0	 0	 35;
	 159	 4.875	 1.495	 3.82	-0.83	 1	 9	 1	 7.5	 2.25	 0	 0	 0	 0	 0	 0	 0	 0	 0	 0	 7.5;
	 160	 150.115	 45.955	 117.55	-25.64	 1	 277.14	 1	 230.95	 69.28	 0	 0	 0	 0	 0	 0	 0	 0	 0	 0	 230.95;
	 161	 150.115	 45.955	 117.55	-25.64	 1	 277.14	 1	 230.95	 69.28	 0	 0	 0	 0	 0	 0	 0	 0	 0	 0	 230.95;
	 162	 150.115	 45.955	 117.55	-25.64	 1	 277.14	 1	 230.95	 69.28	 0	 0	 0	 0	 0	 0	 0	 0	 0	 0	 230.95;
	 163	 150.115	 45.955	 117.55	-25.64	 1	 277.14	 1	 230.95	 69.28	 0	 0	 0	 0	 0	 0	 0	 0	 0	 0	 230.95;
	 173	 0	 0	 2.04	-0.44	 1	 4.8	 0	 4	 1.2	 0	 0	 0	 0	 0	 0	 0	 0	 0	 0	 4;
	 174	 497.25	 152.235	 389.39	-84.92	 1	 918	 1	 765	 229.5	 0	 0	 0	 0	 0	 0	 0	 0	 0	 0	 765;
	 175	 497.25	 152.235	 389.39	-84.92	 1	 918	 1	 765	 229.5	 0	 0	 0	 0	 0	 0	 0	 0	 0	 0	 765;
	 176	 116.025	 35.525	 90.86	-19.81	 1	 214.2	 1	 178.5	 53.55	 0	 0	 0	 0	 0	 0	 0	 0	 0	 0	 178.5;
	 177	 116.025	 35.525	 90.86	-19.81	 1	 214.2	 1	 178.5	 53.55	 0	 0	 0	 0	 0	 0	 0	 0	 0	 0	 178.5;
	 178	 116.025	 35.525	 90.86	-19.81	 1	 214.2	 1	 178.5	 53.55	 0	 0	 0	 0	 0	 0	 0	 0	 0	 0	 178.5;
	 232	 197.99	 60.615	 155.04	-33.81	 1	 365.52	 1	 304.6	 91.38	 0	 0	 0	 0	 0	 0	 0	 0	 0	 0	 304.6;
	 233	 58.915	 18.04	 46.14	-10.06	 1	 108.77	 1	 90.64	 27.19	 0	 0	 0	 0	 0	 0	 0	 0	 0	 0	 90.64;
	 234	 58.915	 18.04	 46.14	-10.06	 1	 108.77	 1	 90.64	 27.19	 0	 0	 0	 0	 0	 0	 0	 0	 0	 0	 90.64;
	 235	 58.915	 18.04	 46.14	-10.06	 1	 108.77	 1	 90.64	 27.19	 0	 0	 0	 0	 0	 0	 0	 0	 0	 0	 90.64;
	 236	 117.83	 36.075	 92.27	-20.12	 1	 217.54	 1	 181.28	 54.38	 0	 0	 0	 0	 0	 0	 0	 0	 0	 0	 181.28;
	 243	 0	 0	 13.08	-2.85	 1	 30.84	 0	 25.7	 7.71	 0	 0	 0	 0	 0	 0	 0	 0	 0	 0	 25.7;
	 244	 0	 0	 7.64	-1.67	 1	 18	 0	 15	 4.5	 0	 0	 0	 0	 0	 0	 0	 0	 0	 0	 15;
	 247	 0	 0	 0	 0	 1	 9	 0	 7.5	 2.25	 0	 0	 0	 0	 0	 0	 0	 0	 0	 0	 7.5;
	 248	 21.22	 0	 0	 0	 1	 33.96	 1	 21.22	 21.22	 0	 0	 0	 0	 0	 0	 0	 0	 0	 0	 28.3;
	 249	 21.22	 0	 0	 0	 1	 33.96	 1	 21.22	 21.22	 0	 0	 0	 0	 0	 0	 0	 0	 0	 0	 28.3;
	 250	 21.22	 0	 0	 0	 1	 33.96	 1	 21.22	 21.22	 0	 0	 0	 0	 0	 0	 0	 0	 0	 0	 28.3;
	 251	 21.22	 0	 0	 0	 1	 33.96	 1	 21.22	 21.22	 0	 0	 0	 0	 0	 0	 0	 0	 0	 0	 28.3;
	 252	 42.45	 0	 0	 0	 1	 67.92	 1	 42.45	 42.45	 0	 0	 0	 0	 0	 0	 0	 0	 0	 0	 56.6;
	 269	 62.84	 19.24	 49.21	-10.73	 1	 116.02	 1	 96.68	 29	 0	 0	 0	 0	 0	 0	 0	 0	 0	 0	 96.68;
	 270	 62.84	 19.24	 49.21	-10.73	 1	 116.02	 1	 96.68	 29	 0	 0	 0	 0	 0	 0	 0	 0	 0	 0	 96.68;
	 271	 0	 0	 49.21	-10.73	 1	 116.02	 0	 96.68	 29	 0	 0	 0	 0	 0	 0	 0	 0	 0	 0	 96.68;
	 272	 62.84	 19.24	 49.21	-10.73	 1	 116.02	 1	 96.68	 29	 0	 0	 0	 0	 0	 0	 0	 0	 0	 0	 96.68;
	 273	 125.69	 38.48	 98.42	-21.46	 1	 232.04	 1	 193.37	 58.01	 0	 0	 0	 0	 0	 0	 0	 0	 0	 0	 193.37;
	 285	 80.91	 24.77	 63.36	-13.82	 1	 149.37	 1	 124.48	 37.34	 0	 0	 0	 0	 0	 0	 0	 0	 0	 0	 124.47;
	 286	 80.91	 24.77	 63.36	-13.82	 1	 149.37	 1	 124.48	 37.34	 0	 0	 0	 0	 0	 0	 0	 0	 0	 0	 124.47;
	 287	 80.91	 24.77	 63.36	-13.82	 1	 149.37	 1	 124.48	 37.34	 0	 0	 0	 0	 0	 0	 0	 0	 0	 0	 124.47;
	 288	 80.91	 24.77	 63.36	-13.82	 1	 149.37	 1	 124.48	 37.34	 0	 0	 0	 0	 0	 0	 0	 0	 0	 0	 124.47;
	 291	 66.235	 20.28	 51.87	-11.31	 1	 122.28	 1	 101.9	 30.57	 0	 0	 0	 0	 0	 0	 0	 0	 0	 0	 101.9;
	 296	 0	 0	 2.19	-0.57	 1	 5.64	 0	 4.7	 1.41	 0	 0	 0	 0	 0	 0	 0	 0	 0	 0	 4.7;
	 297	 294.775	 78	 211.33	-55.33	 1	 544.2	 1	 453.5	 136.05	 0	 0	 0	 0	 0	 0	 0	 0	 0	 0	 453.5;
	 310	 203.99	 62.455	 159.74	-34.83	 1	 376.59	 1	 313.83	 94.15	 0	 0	 0	 0	 0	 0	 0	 0	 0	 0	 313.83;
	 311	 203.99	 62.455	 159.74	-34.83	 1	 376.59	 1	 313.83	 94.15	 0	 0	 0	 0	 0	 0	 0	 0	 0	 0	 313.83;
	 312	 203.99	 62.455	 159.74	-34.83	 1	 376.59	 1	 313.83	 94.15	 0	 0	 0	 0	 0	 0	 0	 0	 0	 0	 313.83;
	 313	 203.99	 62.455	 159.74	-34.83	 1	 376.59	 1	 313.83	 94.15	 0	 0	 0	 0	 0	 0	 0	 0	 0	 0	 313.83;
	 314	 444.73	 136.155	 348.26	-75.95	 1	 821.04	 1	 684.2	 205.26	 0	 0	 0	 0	 0	 0	 0	 0	 0	 0	 684.2;
	 315	 444.73	 136.155	 348.26	-75.95	 1	 821.04	 1	 684.2	 205.26	 0	 0	 0	 0	 0	 0	 0	 0	 0	 0	 684.2;
	 316	 444.73	 136.155	 348.26	-75.95	 1	 821.04	 1	 684.2	 205.26	 0	 0	 0	 0	 0	 0	 0	 0	 0	 0	 684.2;
	 317	 444.6	 136.155	 348.26	-75.95	 1	 821.04	 1	 684.2	 205	 0	 0	 0	 0	 0	 0	 0	 0	 0	 0	 684.2;
	 318	 10.595	 3.245	 8.3	-1.81	 1	 19.56	 1	 16.3	 4.89	 0	 0	 0	 0	 0	 0	 0	 0	 0	 0	 16.3;
	 319	 146.38	 44.815	 114.63	-25	 1	 270.24	 1	 225.2	 67.56	 0	 0	 0	 0	 0	 0	 0	 0	 0	 0	 225.2;
	 320	 146.38	 44.815	 114.63	-25	 1	 270.24	 1	 225.2	 67.56	 0	 0	 0	 0	 0	 0	 0	 0	 0	 0	 225.2;
	 321	 146.38	 44.815	 114.63	-25	 1	 270.24	 1	 225.2	 67.56	 0	 0	 0	 0	 0	 0	 0	 0	 0	 0	 225.2;
	 322	 66.755	 20.435	 52.27	-11.4	 1	 123.24	 1	 102.7	 30.81	 0	 0	 0	 0	 0	 0	 0	 0	 0	 0	 102.7;
	 330	 69.725	 21.345	 54.6	-11.91	 1	 128.72	 1	 107.27	 32.18	 0	 0	 0	 0	 0	 0	 0	 0	 0	 0	 107.27;
	 331	 69.725	 21.345	 54.6	-11.91	 1	 128.72	 1	 107.27	 32.18	 0	 0	 0	 0	 0	 0	 0	 0	 0	 0	 107.27;
	 332	 69.725	 21.345	 54.6	-11.91	 1	 128.72	 1	 107.27	 32.18	 0	 0	 0	 0	 0	 0	 0	 0	 0	 0	 107.27;
	 333	 69.725	 21.345	 54.6	-11.91	 1	 128.72	 1	 107.27	 32.18	 0	 0	 0	 0	 0	 0	 0	 0	 0	 0	 107.27;
	 334	 69.725	 21.345	 54.6	-11.91	 1	 128.72	 1	 107.27	 32.18	 0	 0	 0	 0	 0	 0	 0	 0	 0	 0	 107.27;
	 335	 69.725	 21.345	 54.6	-11.91	 1	 128.72	 1	 107.27	 32.18	 0	 0	 0	 0	 0	 0	 0	 0	 0	 0	 107.27;
	 336	 119.38	 36.545	 93.48	-20.39	 1	 220.39	 1	 183.66	 55.1	 0	 0	 0	 0	 0	 0	 0	 0	 0	 0	 183.66;
	 337	 119.38	 36.545	 93.48	-20.39	 1	 220.39	 1	 183.66	 55.1	 0	 0	 0	 0	 0	 0	 0	 0	 0	 0	 183.66;
	 338	 119.38	 36.545	 93.48	-20.39	 1	 220.39	 1	 183.66	 55.1	 0	 0	 0	 0	 0	 0	 0	 0	 0	 0	 183.66;
	 339	 119.38	 36.545	 93.48	-20.39	 1	 220.39	 1	 183.66	 55.1	 0	 0	 0	 0	 0	 0	 0	 0	 0	 0	 183.66;
	 340	 119.38	 36.545	 93.48	-20.39	 1	 220.39	 1	 183.66	 55.1	 0	 0	 0	 0	 0	 0	 0	 0	 0	 0	 183.66;
	 350	 352.82	 108.02	 276.29	-60.25	 1	 651.36	 1	 542.8	 162.84	 0	 0	 0	 0	 0	 0	 0	 0	 0	 0	 542.8;
	 361	 46.8	 14.33	 36.65	-7.99	 1	 86.4	 1	 72	 21.6	 0	 0	 0	 0	 0	 0	 0	 0	 0	 0	 72;
	 361	 46.8	 14.33	 36.65	-7.99	 1	 86.4	 1	 72	 21.6	 0	 0	 0	 0	 0	 0	 0	 0	 0	 0	 72;
	 361	 46.8	 14.33	 36.65	-7.99	 1	 86.4	 1	 72	 21.6	 0	 0	 0	 0	 0	 0	 0	 0	 0	 0	 72;
	 361	 46.8	 14.33	 36.65	-7.99	 1	 86.4	 1	 72	 21.6	 0	 0	 0	 0	 0	 0	 0	 0	 0	 0	 72;
	 361	 93.6	 28.66	 73.3	-15.98	 1	 172.8	 1	 144	 43.2	 0	 0	 0	 0	 0	 0	 0	 0	 0	 0	 144;
	 361	 290.16	 88.835	 227.22	-49.55	 1	 535.68	 1	 446.4	 133.92	 0	 0	 0	 0	 0	 0	 0	 0	 0	 0	 446.4;
	 374	 57.33	 17.55	 44.89	-9.79	 1	 105.84	 1	 88.2	 26.46	 0	 0	 0	 0	 0	 0	 0	 0	 0	 0	 88.2;
	 374	 57.33	 17.55	 44.89	-9.79	 1	 105.84	 1	 88.2	 26.46	 0	 0	 0	 0	 0	 0	 0	 0	 0	 0	 88.2;
	 377	 4.42	 1.355	 3.46	-0.75	 1	 8.16	 1	 6.8	 2.04	 0	 0	 0	 0	 0	 0	 0	 0	 0	 0	 6.8;
	 377	 111.93	 34.27	 87.65	-19.11	 1	 206.64	 1	 172.2	 51.66	 0	 0	 0	 0	 0	 0	 0	 0	 0	 0	 172.2;
	 377	 111.93	 34.27	 87.65	-19.11	 1	 206.64	 1	 172.2	 51.66	 0	 0	 0	 0	 0	 0	 0	 0	 0	 0	 172.2;
	 377	 73.125	 22.385	 57.26	-12.49	 1	 135	 1	 112.5	 33.75	 0	 0	 0	 0	 0	 0	 0	 0	 0	 0	 112.5;
	 377	 73.125	 22.385	 57.26	-12.49	 1	 135	 1	 112.5	 33.75	 0	 0	 0	 0	 0	 0	 0	 0	 0	 0	 112.5;
	 377	 73.125	 22.385	 57.26	-12.49	 1	 135	 1	 112.5	 33.75	 0	 0	 0	 0	 0	 0	 0	 0	 0	 0	 112.5;
	 377	 73.125	 22.385	 57.26	-12.49	 1	 135	 1	 112.5	 33.75	 0	 0	 0	 0	 0	 0	 0	 0	 0	 0	 112.5;
	 377	 124.215	 38.03	 97.27	-21.21	 1	 229.32	 1	 191.1	 57.33	 0	 0	 0	 0	 0	 0	 0	 0	 0	 0	 191.1;
	 377	 111.93	 34.27	 87.65	-19.11	 1	 206.64	 1	 172.2	 51.66	 0	 0	 0	 0	 0	 0	 0	 0	 0	 0	 172.2;
	 377	 111.93	 34.27	 87.65	-19.11	 1	 206.64	 1	 172.2	 51.66	 0	 0	 0	 0	 0	 0	 0	 0	 0	 0	 172.2;
	 377	 111.93	 34.27	 87.65	-19.11	 1	 206.64	 1	 172.2	 51.66	 0	 0	 0	 0	 0	 0	 0	 0	 0	 0	 172.2;
	 383	 65.34	 20	 51.16	-11.16	 1	 120.62	 1	 100.52	 30.16	 0	 0	 0	 0	 0	 0	 0	 0	 0	 0	 100.52;
	 383	 84.5	 25.87	 66.17	-14.43	 1	 156	 1	 130	 39	 0	 0	 0	 0	 0	 0	 0	 0	 0	 0	 130;
	 383	 84.5	 25.87	 66.17	-14.43	 1	 156	 1	 130	 39	 0	 0	 0	 0	 0	 0	 0	 0	 0	 0	 130;
	 383	 65.34	 20	 51.16	-11.16	 1	 120.62	 1	 100.52	 30.16	 0	 0	 0	 0	 0	 0	 0	 0	 0	 0	 100.52;
	 383	 65.34	 20	 51.16	-11.16	 1	 120.62	 1	 100.52	 30.16	 0	 0	 0	 0	 0	 0	 0	 0	 0	 0	 100.52;
	 383	 65.34	 20	 51.16	-11.16	 1	 120.62	 1	 100.52	 30.16	 0	 0	 0	 0	 0	 0	 0	 0	 0	 0	 100.52;
	 383	 65.34	 20	 51.16	-11.16	 1	 120.62	 1	 100.52	 30.16	 0	 0	 0	 0	 0	 0	 0	 0	 0	 0	 100.52;
	 383	 65.34	 20	 51.16	-11.16	 1	 120.62	 1	 100.52	 30.16	 0	 0	 0	 0	 0	 0	 0	 0	 0	 0	 100.52;
	 383	 48.75	 14.92	 38.17	-8.33	 1	 90	 1	 75	 22.5	 0	 0	 0	 0	 0	 0	 0	 0	 0	 0	 75;
	 383	 0	 0	 41.23	-8.99	 1	 97.2	 0	 81	 24.3	 0	 0	 0	 0	 0	 0	 0	 0	 0	 0	 81;
	 383	 7.605	 2.33	 5.96	-1.3	 1	 14.04	 1	 11.7	 3.51	 0	 0	 0	 0	 0	 0	 0	 0	 0	 0	 11.7;
	 392	 0	 0	 119.58	-26.08	 1	 281.91	 0	 234.93	 70.48	 0	 0	 0	 0	 0	 0	 0	 0	 0	 0	 234.93;
	 393	 0	 0	 119.58	-26.08	 1	 281.91	 0	 234.93	 70.48	 0	 0	 0	 0	 0	 0	 0	 0	 0	 0	 234.93;
	 394	 0	 0	 119.58	-26.08	 1	 281.91	 0	 234.93	 70.48	 0	 0	 0	 0	 0	 0	 0	 0	 0	 0	 234.93;
	 395	 0	 0	 119.58	-26.08	 1	 281.91	 0	 234.93	 70.48	 0	 0	 0	 0	 0	 0	 0	 0	 0	 0	 234.93;
];

mpc_regionR1.branch = [
%	fbus        tbus        r           x           b           rateA       rateB       rateC       ratio       angle       status      angmin      angmax      
	 165	 1	 0.00097	 0.01173	 0.77933	 2020	 2020	 2020	 0	 0	 1	-30	 30;
	 2	 5	 0.01342	 0.05869	 0.00894	 149	 149	 149	 0	 0	 1	-30	 30;
	 3	 5	 0.02816	 0.06884	 0.00901	 98	 98	 98	 0	 0	 1	-30	 30;
	 396	 3	 0.00916	 0.05232	 0.00786	 98	 98	 98	 0	 0	 1	-30	 30;
	 4	 276	 0.01465	 0.06078	 0.01031	 149	 149	 149	 0	 0	 1	-30	 30;
	 5	 168	 0.01405	 0.06262	 0.00918	 149	 149	 149	 0	 0	 1	-30	 30;
	 7	 6	 0.00022	 0.0149	 0	 1299	 1299	 1299	 1	 0	 1	-30	 30;
	 9	 6	 0.00041	 0.02493	 0	 630	 630	 630	 1	 0	 1	-30	 30;
	 10	 6	 0.00012	 0.01417	 0	 626	 626	 626	 1	 0	 1	-30	 30;
	 11	 6	 0.00034	 0.02135	 0	 639	 639	 639	 1	 0	 1	-30	 30;
	 12	 6	 0.00045	 0.02245	 0	 629	 629	 629	 1	 0	 1	-30	 30;
	 13	 6	 0.00049	 0.02499	 0	 625	 625	 625	 1	 0	 1	-30	 30;
	 74	 6	 3e-05	 0.0007	 0.04887	 3146	 3146	 3146	 0	 0	 1	-30	 30;
	 6	 193	 0.00036	 0.00731	 0.51017	 3146	 3146	 3146	 0	 0	 1	-30	 30;
	 327	 6	 0.00016	 0.00189	 0.12566	 2020	 2020	 2020	 0	 0	 1	-30	 30;
	 8	 7	 0.0009	 0.03512	 0	 386	 386	 386	 1	 0	 1	-30	 30;
	 8	 7	 0.0009	 0.03512	 0	 386	 386	 386	 1	 0	 1	-30	 30;
	 8	 7	 0.0009	 0.03512	 0	 386	 386	 386	 1	 0	 1	-30	 30;
	 7	 230	 0.00225	 0.01608	 0.02932	 523	 523	 523	 0	 0	 1	-30	 30;
	 50	 8	 0.00199	 0.01386	 0.00227	 250	 250	 250	 0	 0	 1	-30	 30;
	 50	 8	 0.00199	 0.01386	 0.00227	 250	 250	 250	 0	 0	 1	-30	 30;
	 50	 8	 0.00199	 0.01386	 0.00227	 250	 250	 250	 0	 0	 1	-30	 30;
	 8	 76	 0.0021	 0.01353	 0.00258	 221	 221	 221	 0	 0	 1	-30	 30;
	 8	 76	 0.0021	 0.01353	 0.00258	 221	 221	 221	 0	 0	 1	-30	 30;
	 8	 76	 0.0021	 0.01353	 0.00258	 221	 221	 221	 0	 0	 1	-30	 30;
	 8	 76	 0.0021	 0.01353	 0.00258	 221	 221	 221	 0	 0	 1	-30	 30;
	 8	 306	 0.00591	 0.04035	 0.00687	 221	 221	 221	 0	 0	 1	-30	 30;
	 8	 306	 0.00591	 0.04035	 0.00687	 221	 221	 221	 0	 0	 1	-30	 30;
	 8	 306	 0.00591	 0.04035	 0.00687	 221	 221	 221	 0	 0	 1	-30	 30;
	 14	 148	 0.01896	 0.11385	 0.01545	 98	 98	 98	 0	 0	 1	-30	 30;
	 14	 168	 0.00553	 0.02294	 0.00389	 149	 149	 149	 0	 0	 1	-30	 30;
	 199	 14	 0.00425	 0.01763	 0.00299	 149	 149	 149	 0	 0	 1	-30	 30;
	 220	 15	 0.00899	 0.04008	 0.00588	 149	 149	 149	 0	 0	 1	-30	 30;
	 15	 263	 0.00567	 0.0248	 0.00378	 149	 149	 149	 0	 0	 1	-30	 30;
	 16	 86	 0.00531	 0.03627	 0.00617	 221	 221	 221	 0	 0	 1	-30	 30;
	 304	 16	 0.00603	 0.04198	 0.00686	 221	 221	 221	 0	 0	 1	-30	 30;
	 17	 167	 0.00433	 0.0302	 0.00494	 221	 221	 221	 0	 0	 1	-30	 30;
	 17	 167	 0.00433	 0.0302	 0.00494	 221	 221	 221	 0	 0	 1	-30	 30;
	 17	 380	 0.003	 0.02091	 0.00342	 221	 221	 221	 0	 0	 1	-30	 30;
	 19	 18	 0.00981	 0.21665	 0	 43	 43	 43	 1	 0	 1	-30	 30;
	 18	 70	 0.00476	 0.03249	 0.00553	 221	 221	 221	 0	 0	 1	-30	 30;
	 18	 70	 0.00476	 0.03249	 0.00553	 221	 221	 221	 0	 0	 1	-30	 30;
	 18	 93	 0.01606	 0.03857	 0.00523	 98	 98	 98	 0	 0	 1	-30	 30;
	 18	 183	 0.00415	 0.02371	 0.00356	 221	 221	 221	 0	 0	 1	-30	 30;
	 20	 326	 0.0068	 0.04642	 0.0079	 221	 221	 221	 0	 0	 1	-30	 30;
	 20	 326	 0.0068	 0.04642	 0.0079	 221	 221	 221	 0	 0	 1	-30	 30;
	 20	 326	 0.0068	 0.04642	 0.0079	 221	 221	 221	 0	 0	 1	-30	 30;
	 20	 326	 0.0068	 0.04642	 0.0079	 221	 221	 221	 0	 0	 1	-30	 30;
	 329	 20	 0.002	 0.01369	 0.00233	 221	 221	 221	 0	 0	 1	-30	 30;
	 329	 20	 0.002	 0.01369	 0.00233	 221	 221	 221	 0	 0	 1	-30	 30;
	 329	 20	 0.002	 0.01369	 0.00233	 221	 221	 221	 0	 0	 1	-30	 30;
	 20	 363	 0.00314	 0.02144	 0.00365	 221	 221	 221	 0	 0	 1	-30	 30;
	 20	 363	 0.00314	 0.02144	 0.00365	 221	 221	 221	 0	 0	 1	-30	 30;
	 64	 21	 0.0044	 0.01826	 0.0031	 221	 221	 221	 0	 0	 1	-30	 30;
	 21	 149	 0.00737	 0.04422	 0.006	 221	 221	 221	 0	 0	 1	-30	 30;
	 21	 195	 0.00604	 0.04129	 0.00702	 221	 221	 221	 0	 0	 1	-30	 30;
	 21	 195	 0.00604	 0.04129	 0.00702	 221	 221	 221	 0	 0	 1	-30	 30;
	 21	 195	 0.00604	 0.04129	 0.00702	 221	 221	 221	 0	 0	 1	-30	 30;
	 21	 207	 0.00382	 0.01669	 0.00254	 149	 149	 149	 0	 0	 1	-30	 30;
	 21	 346	 0.00298	 0.01922	 0.00367	 221	 221	 221	 0	 0	 1	-30	 30;
	 21	 346	 0.00298	 0.01922	 0.00367	 221	 221	 221	 0	 0	 1	-30	 30;
	 22	 47	 0.0032	 0.02067	 0.00394	 221	 221	 221	 0	 0	 1	-30	 30;
	 22	 47	 0.0032	 0.02067	 0.00394	 221	 221	 221	 0	 0	 1	-30	 30;
	 22	 225	 0.01125	 0.07265	 0.01386	 221	 221	 221	 0	 0	 1	-30	 30;
	 239	 22	 0.00548	 0.0382	 0.00624	 221	 221	 221	 0	 0	 1	-30	 30;
	 239	 22	 0.00548	 0.0382	 0.00624	 221	 221	 221	 0	 0	 1	-30	 30;
	 23	 123	 0.00228	 0.01559	 0.00265	 221	 221	 221	 0	 0	 1	-30	 30;
	 23	 123	 0.00228	 0.01559	 0.00265	 221	 221	 221	 0	 0	 1	-30	 30;
	 23	 200	 0.00431	 0.01886	 0.00287	 149	 149	 149	 0	 0	 1	-30	 30;
	 23	 211	 0.00974	 0.04259	 0.00649	 149	 149	 149	 0	 0	 1	-30	 30;
	 23	 386	 0.015	 0.06687	 0.00981	 149	 149	 149	 0	 0	 1	-30	 30;
	 115	 24	 0.0011	 0.00768	 0.00126	 300	 300	 300	 0	 0	 1	-30	 30;
	 115	 24	 0.0011	 0.00768	 0.00126	 300	 300	 300	 0	 0	 1	-30	 30;
	 24	 186	 0.00381	 0.02289	 0.00311	 221	 221	 221	 0	 0	 1	-30	 30;
	 24	 206	 0.00642	 0.01568	 0.00205	 221	 221	 221	 0	 0	 1	-30	 30;
	 24	 292	 0.01183	 0.02841	 0.00385	 221	 221	 221	 0	 0	 1	-30	 30;
	 26	 25	 0.00036	 0.02039	 0	 368	 368	 368	 1	 0	 1	-30	 30;
	 30	 25	 0.00756	 0.05402	 0.09848	 523	 523	 523	 0	 0	 1	-30	 30;
	 41	 25	 0.00217	 0.01547	 0.02821	 443	 443	 443	 0	 0	 1	-30	 30;
	 25	 351	 0.00154	 0.01505	 0.02896	 548	 548	 548	 0	 0	 1	-30	 30;
	 25	 390	 0.00526	 0.05146	 0.09901	 548	 548	 548	 0	 0	 1	-30	 30;
	 26	 97	 0.005	 0.02228	 0.00327	 149	 149	 149	 0	 0	 1	-30	 30;
	 386	 26	 0.00448	 0.03123	 0.00511	 221	 221	 221	 0	 0	 1	-30	 30;
	 386	 26	 0.00448	 0.03123	 0.00511	 221	 221	 221	 0	 0	 1	-30	 30;
	 28	 27	 0.00016	 0.00995	 0	 1055	 1055	 1055	 1	 0	 1	-30	 30;
	 32	 27	 0.00024	 0.00293	 0.19466	 2020	 2020	 2020	 0	 0	 1	-30	 30;
	 27	 383	 0.0006	 0.01232	 0.85919	 2768	 2768	 2768	 0	 0	 1	-30	 30;
	 29	 28	 0.00084	 0.02618	 0	 420	 420	 420	 1	 0	 1	-30	 30;
	 29	 28	 0.00084	 0.02618	 0	 420	 420	 420	 1	 0	 1	-30	 30;
	 95	 28	 0.00089	 0.00924	 0.03147	 750	 750	 750	 0	 0	 1	-30	 30;
	 95	 28	 0.00089	 0.00924	 0.03147	 750	 750	 750	 0	 0	 1	-30	 30;
	 28	 150	 0.00247	 0.02419	 0.04653	 647	 647	 647	 0	 0	 1	-30	 30;
	 367	 28	 0.0006	 0.00622	 0.02121	 750	 750	 750	 0	 0	 1	-30	 30;
	 367	 28	 0.0006	 0.00622	 0.02121	 750	 750	 750	 0	 0	 1	-30	 30;
	 29	 71	 0.00285	 0.01988	 0.00325	 221	 221	 221	 0	 0	 1	-30	 30;
	 29	 71	 0.00285	 0.01988	 0.00325	 221	 221	 221	 0	 0	 1	-30	 30;
	 29	 71	 0.00285	 0.01988	 0.00325	 221	 221	 221	 0	 0	 1	-30	 30;
	 29	 358	 0.02904	 0.06977	 0.00947	 240	 240	 240	 0	 0	 1	-30	 30;
	 31	 30	 0.00089	 0.03362	 0	 337	 337	 337	 1	 0	 1	-30	 30;
	 31	 30	 0.00089	 0.03362	 0	 337	 337	 337	 1	 0	 1	-30	 30;
	 30	 52	 0.00208	 0.02159	 0.07357	 750	 750	 750	 0	 0	 1	-30	 30;
	 30	 52	 0.00208	 0.02159	 0.07357	 750	 750	 750	 0	 0	 1	-30	 30;
	 31	 204	 0.01373	 0.06121	 0.00898	 149	 149	 149	 0	 0	 1	-30	 30;
	 355	 31	 0.00776	 0.05303	 0.00902	 221	 221	 221	 0	 0	 1	-30	 30;
	 355	 31	 0.00776	 0.05303	 0.00902	 221	 221	 221	 0	 0	 1	-30	 30;
	 33	 32	 0.00011	 0.00819	 0	 1125	 1125	 1125	 1	 0	 1	-30	 30;
	 165	 32	 0.00024	 0.00294	 0.19535	 2020	 2020	 2020	 0	 0	 1	-30	 30;
	 34	 33	 0.00068	 0.02653	 0	 466	 466	 466	 1	 0	 1	-30	 30;
	 34	 33	 0.00068	 0.02653	 0	 466	 466	 466	 1	 0	 1	-30	 30;
	 194	 33	 0.00068	 0.00665	 0.01279	 548	 548	 548	 0	 0	 1	-30	 30;
	 303	 33	 0.00134	 0.01309	 0.02519	 548	 548	 548	 0	 0	 1	-30	 30;
	 34	 64	 0.00671	 0.04677	 0.00764	 221	 221	 221	 0	 0	 1	-30	 30;
	 277	 34	 0.00436	 0.03039	 0.00497	 221	 221	 221	 0	 0	 1	-30	 30;
	 277	 34	 0.00436	 0.03039	 0.00497	 221	 221	 221	 0	 0	 1	-30	 30;
	 277	 34	 0.00436	 0.03039	 0.00497	 221	 221	 221	 0	 0	 1	-30	 30;
	 35	 65	 0.00351	 0.02269	 0.00433	 221	 221	 221	 0	 0	 1	-30	 30;
	 35	 65	 0.00351	 0.02269	 0.00433	 221	 221	 221	 0	 0	 1	-30	 30;
	 35	 217	 0.01093	 0.04781	 0.00728	 149	 149	 149	 0	 0	 1	-30	 30;
	 36	 61	 0.01063	 0.0465	 0.00708	 149	 149	 149	 0	 0	 1	-30	 30;
	 36	 147	 0.00631	 0.03605	 0.00542	 98	 98	 98	 0	 0	 1	-30	 30;
	 240	 36	 0.00383	 0.01676	 0.00255	 221	 221	 221	 0	 0	 1	-30	 30;
	 36	 326	 0.00182	 0.01243	 0.00211	 221	 221	 221	 0	 0	 1	-30	 30;
	 36	 326	 0.00182	 0.01243	 0.00211	 221	 221	 221	 0	 0	 1	-30	 30;
	 37	 38	 0.00939	 0.06413	 0.01091	 221	 221	 221	 0	 0	 1	-30	 30;
	 37	 38	 0.00939	 0.06413	 0.01091	 221	 221	 221	 0	 0	 1	-30	 30;
	 37	 38	 0.00939	 0.06413	 0.01091	 221	 221	 221	 0	 0	 1	-30	 30;
	 37	 149	 0.00858	 0.03822	 0.0056	 221	 221	 221	 0	 0	 1	-30	 30;
	 37	 187	 0.00969	 0.0402	 0.00682	 149	 149	 149	 0	 0	 1	-30	 30;
	 222	 37	 0.00256	 0.01655	 0.00316	 221	 221	 221	 0	 0	 1	-30	 30;
	 222	 37	 0.00256	 0.01655	 0.00316	 221	 221	 221	 0	 0	 1	-30	 30;
	 38	 309	 0.00216	 0.01507	 0.00246	 250	 250	 250	 0	 0	 1	-30	 30;
	 38	 309	 0.00216	 0.01507	 0.00246	 250	 250	 250	 0	 0	 1	-30	 30;
	 38	 309	 0.00216	 0.01507	 0.00246	 250	 250	 250	 0	 0	 1	-30	 30;
	 39	 61	 0.01035	 0.06217	 0.00844	 98	 98	 98	 0	 0	 1	-30	 30;
	 209	 39	 0.00558	 0.03601	 0.00687	 221	 221	 221	 0	 0	 1	-30	 30;
	 39	 348	 0.00566	 0.0323	 0.00485	 98	 98	 98	 0	 0	 1	-30	 30;
	 40	 93	 0.00357	 0.02439	 0.00415	 221	 221	 221	 0	 0	 1	-30	 30;
	 40	 93	 0.00357	 0.02439	 0.00415	 221	 221	 221	 0	 0	 1	-30	 30;
	 154	 40	 0.0014	 0.00978	 0.0016	 221	 221	 221	 0	 0	 1	-30	 30;
	 154	 40	 0.0014	 0.00978	 0.0016	 221	 221	 221	 0	 0	 1	-30	 30;
	 154	 40	 0.0014	 0.00978	 0.0016	 221	 221	 221	 0	 0	 1	-30	 30;
	 154	 40	 0.0014	 0.00978	 0.0016	 221	 221	 221	 0	 0	 1	-30	 30;
	 216	 40	 0.00146	 0.01001	 0.0017	 250	 250	 250	 0	 0	 1	-30	 30;
	 216	 40	 0.00146	 0.01001	 0.0017	 250	 250	 250	 0	 0	 1	-30	 30;
	 42	 41	 0.00161	 0.04976	 0	 377	 377	 377	 1	 0	 1	-30	 30;
	 41	 122	 0.00287	 0.02047	 0.03732	 443	 443	 443	 0	 0	 1	-30	 30;
	 41	 126	 0.00187	 0.01944	 0.06623	 750	 750	 750	 0	 0	 1	-30	 30;
	 41	 375	 0.0013	 0.0093	 0.01695	 443	 443	 443	 0	 0	 1	-30	 30;
	 181	 42	 0.00223	 0.01557	 0.00254	 221	 221	 221	 0	 0	 1	-30	 30;
	 181	 42	 0.00223	 0.01557	 0.00254	 221	 221	 221	 0	 0	 1	-30	 30;
	 43	 211	 0.00829	 0.04734	 0.00711	 98	 98	 98	 0	 0	 1	-30	 30;
	 43	 254	 0.00748	 0.04274	 0.00642	 98	 98	 98	 0	 0	 1	-30	 30;
	 43	 305	 0.01002	 0.02449	 0.00321	 98	 98	 98	 0	 0	 1	-30	 30;
	 45	 44	 0.0023	 0.07154	 0	 145.8	 145.8	 145.8	 1	 0	 1	-30	 30;
	 267	 44	 0.0021	 0.0205	 0.03945	 548	 548	 548	 0	 0	 1	-30	 30;
	 45	 371	 0.01312	 0.05846	 0.00857	 149	 149	 149	 0	 0	 1	-30	 30;
	 46	 70	 0.00621	 0.04324	 0.00707	 221	 221	 221	 0	 0	 1	-30	 30;
	 46	 223	 0.00619	 0.03538	 0.00532	 98	 98	 98	 0	 0	 1	-30	 30;
	 46	 279	 0.00528	 0.03607	 0.00614	 221	 221	 221	 0	 0	 1	-30	 30;
	 46	 359	 0.00238	 0.01063	 0.00156	 149	 149	 149	 0	 0	 1	-30	 30;
	 47	 59	 0.00344	 0.02395	 0.00391	 221	 221	 221	 0	 0	 1	-30	 30;
	 47	 59	 0.00344	 0.02395	 0.00391	 221	 221	 221	 0	 0	 1	-30	 30;
	 49	 48	 0.00062	 0.03776	 0	 185	 185	 185	 1	 0	 1	-30	 30;
	 137	 48	 0.0022	 0.01575	 0.02871	 443	 443	 443	 0	 0	 1	-30	 30;
	 171	 48	 0.00402	 0.03929	 0.07559	 548	 548	 548	 0	 0	 1	-30	 30;
	 366	 49	 0.00499	 0.02067	 0.00351	 149	 149	 149	 0	 0	 1	-30	 30;
	 50	 348	 0.01167	 0.07976	 0.01357	 221	 221	 221	 0	 0	 1	-30	 30;
	 50	 348	 0.01167	 0.07976	 0.01357	 221	 221	 221	 0	 0	 1	-30	 30;
	 50	 359	 0.00592	 0.03823	 0.00729	 221	 221	 221	 0	 0	 1	-30	 30;
	 50	 359	 0.00592	 0.03823	 0.00729	 221	 221	 221	 0	 0	 1	-30	 30;
	 52	 51	 7e-05	 0.00459	 0	 1233	 1233	 1233	 1	 0	 1	-30	 30;
	 54	 51	 0.00024	 0.01675	 0	 855	 855	 855	 1	 0	 1	-30	 30;
	 55	 51	 0.00037	 0.02147	 0	 857	 857	 857	 1	 0	 1	-30	 30;
	 56	 51	 0.0003	 0.02166	 0	 863	 863	 863	 1	 0	 1	-30	 30;
	 57	 51	 0.00028	 0.01719	 0	 847	 847	 847	 1	 0	 1	-30	 30;
	 170	 51	 0.00014	 0.00172	 0.1143	 2020	 2020	 2020	 0	 0	 1	-30	 30;
	 51	 377	 0.00061	 0.00741	 0.49226	 2020	 2020	 2020	 0	 0	 1	-30	 30;
	 53	 52	 0.0011	 0.04562	 0	 220	 220	 220	 1	 0	 1	-30	 30;
	 52	 245	 0.00125	 0.00896	 0.01633	 523	 523	 523	 0	 0	 1	-30	 30;
	 172	 53	 0.00828	 0.03692	 0.00541	 149	 149	 149	 0	 0	 1	-30	 30;
	 53	 242	 0.00273	 0.01863	 0.00317	 221	 221	 221	 0	 0	 1	-30	 30;
	 53	 242	 0.00273	 0.01863	 0.00317	 221	 221	 221	 0	 0	 1	-30	 30;
	 59	 58	 0.00053	 0.03003	 0	 355	 355	 355	 1	 0	 1	-30	 30;
	 59	 58	 0.00053	 0.03003	 0	 355	 355	 355	 1	 0	 1	-30	 30;
	 58	 75	 0.00233	 0.0228	 0.04386	 548	 548	 548	 0	 0	 1	-30	 30;
	 58	 137	 0.00193	 0.01885	 0.03628	 548	 548	 548	 0	 0	 1	-30	 30;
	 58	 150	 0.00606	 0.04326	 0.07887	 443	 443	 443	 0	 0	 1	-30	 30;
	 58	 230	 0.0013	 0.01272	 0.02448	 647	 647	 647	 0	 0	 1	-30	 30;
	 378	 58	 0.00173	 0.01235	 0.02252	 443	 443	 443	 0	 0	 1	-30	 30;
	 60	 210	 0.01057	 0.07367	 0.01204	 221	 221	 221	 0	 0	 1	-30	 30;
	 60	 210	 0.01057	 0.07367	 0.01204	 221	 221	 221	 0	 0	 1	-30	 30;
	 370	 60	 0.00305	 0.02125	 0.00347	 221	 221	 221	 0	 0	 1	-30	 30;
	 370	 60	 0.00305	 0.02125	 0.00347	 221	 221	 221	 0	 0	 1	-30	 30;
	 61	 188	 0.00549	 0.02279	 0.00387	 149	 149	 149	 0	 0	 1	-30	 30;
	 61	 374	 0.01003	 0.0648	 0.01236	 221	 221	 221	 0	 0	 1	-30	 30;
	 61	 374	 0.01003	 0.0648	 0.01236	 221	 221	 221	 0	 0	 1	-30	 30;
	 62	 96	 0.00301	 0.01945	 0.00371	 250	 250	 250	 0	 0	 1	-30	 30;
	 62	 96	 0.00301	 0.01945	 0.00371	 250	 250	 250	 0	 0	 1	-30	 30;
	 62	 96	 0.00301	 0.01945	 0.00371	 250	 250	 250	 0	 0	 1	-30	 30;
	 62	 96	 0.00301	 0.01945	 0.00371	 250	 250	 250	 0	 0	 1	-30	 30;
...
];

mpc_regionR1.gencost = [
%	2           startup     shutdown    n           c(n-1)...c0 
	 2	 0	 0	 3	 0.001	 15.681	 844.5;
	 2	 0	 0	 3	 0.001	 15.681	 844.5;
	 2	 0	 0	 3	 0.001	 15.681	 844.5;
	 2	 0	 0	 3	 0.001	 15.681	 844.5;
	 2	 0	 0	 3	 0.001	 15.681	 844.5;
	 2	 0	 0	 3	 0.001	 14.983	 606;
	 2	 0	 0	 3	 0.001	 15.969	 942.97;
	 2	 0	 0	 3	 0.001	 15.969	 942.97;
	 2	 0	 0	 3	 0.001	 15.969	 942.97;
	 2	 0	 0	 3	 0.001	 15.969	 942.97;
	 2	 0	 0	 3	 0.001	 15.624	 825;
	 2	 0	 0	 3	 0.001	 15.19	 676.5;
	 2	 0	 0	 3	 0.001	 15.19	 676.5;
	 2	 0	 0	 3	 0.001	 15.826	 894;
	 2	 0	 0	 3	 0.001	 15.826	 894;
	 2	 0	 0	 3	 0.001	 15.826	 894;
	 2	 0	 0	 3	 0.001	 15.826	 894;
	 2	 0	 0	 3	 0.001	 15.826	 894;
	 2	 0	 0	 3	 0.001	 15.826	 894;
	 2	 0	 0	 3	 0.001	 14.982	 605.55;
	 2	 0	 0	 3	 0.001	 14.985	 606.45;
	 2	 0	 0	 3	 0.001	 15.037	 624.45;
	 2	 0	 0	 3	 0.001	 15.872	 909.83;
	 2	 0	 0	 3	 0.001	 15.872	 909.83;
	 2	 0	 0	 3	 0.001	 15.872	 909.83;
	 2	 0	 0	 3	 0.001	 15.872	 909.83;
	 2	 0	 0	 3	 0.001	 16.636	 1171.05;
	 2	 0	 0	 3	 0.001	 15.225	 688.5;
	 2	 0	 0	 3	 0.001	 15.225	 688.5;
	 2	 0	 0	 3	 0.001	 15.225	 688.5;
	 2	 0	 0	 3	 0.001	 15.225	 688.5;
	 2	 0	 0	 3	 0.001	 15.011	 615.3;
	 2	 0	 0	 3	 0.001	 15.451	 765.9;
	 2	 0	 0	 3	 0.001	 15.451	 765.9;
	 2	 0	 0	 3	 0.001	 15.451	 765.9;
	 2	 0	 0	 3	 0.001	 15.451	 765.9;
	 2	 0	 0	 3	 0.001	 15.451	 765.9;
	 2	 0	 0	 3	 0.001	 15.451	 765.9;
	 2	 0	 0	 3	 0.001	 15.351	 731.58;
	 2	 0	 0	 3	 0.001	 15.351	 731.58;
	 2	 0	 0	 3	 0.001	 16.505	 1126.31;
	 2	 0	 0	 3	 0.001	 14.996	 610.35;
	 2	 0	 0	 3	 0.001	 15.177	 672;
	 2	 0	 0	 3	 0.001	 14.988	 607.5;
	 2	 0	 0	 3	 0.001	 15.119	 652.5;
	 2	 0	 0	 3	 0.001	 14.999	 611.25;
	 2	 0	 0	 3	 0.001	 15.979	 946.42;
	 2	 0	 0	 3	 0.001	 15.979	 946.42;
	 2	 0	 0	 3	 0.001	 15.979	 946.42;
	 2	 0	 0	 3	 0.001	 15.979	 946.42;
	 2	 0	 0	 3	 0.001	 14.983	 606;
	 2	 0	 0	 3	 0.001	 18.322	 3859;
	 2	 0	 0	 3	 0.001	 18.322	 3859;
	 2	 0	 0	 3	 0.001	 15.749	 867.75;
	 2	 0	 0	 3	 0.001	 15.749	 867.75;
	 2	 0	 0	 3	 0.001	 15.749	 867.75;
	 2	 0	 0	 3	 0.001	 16.302	 1056.9;
	 2	 0	 0	 3	 0.001	 15.364	 735.96;
	 2	 0	 0	 3	 0.001	 15.364	 735.96;
	 2	 0	 0	 3	 0.001	 15.364	 735.96;
	 2	 0	 0	 3	 0.001	 15.761	 871.92;
	 2	 0	 0	 3	 0.001	 15.079	 638.55;
	 2	 0	 0	 3	 0.001	 15.032	 622.5;
	 2	 0	 0	 3	 0	 0	 0;
	 2	 0	 0	 3	 0	 0	 0;
	 2	 0	 0	 3	 0	 0	 0;
	 2	 0	 0	 3	 0	 0	 0;
	 2	 0	 0	 3	 0	 0	 0;
	 2	 0	 0	 3	 0	 0	 0;
	 2	 0	 0	 3	 0.001	 16.984	 745.02;
	 2	 0	 0	 3	 0.001	 16.984	 745.02;
	 2	 0	 0	 3	 0.001	 16.984	 745.02;
	 2	 0	 0	 3	 0.001	 16.984	 745.02;
	 2	 0	 0	 3	 0.001	 17.452	 890.05;
	 2	 0	 0	 3	 0.001	 15.512	 786.72;
	 2	 0	 0	 3	 0.001	 15.512	 786.72;
	 2	 0	 0	 3	 0.001	 15.512	 786.72;
	 2	 0	 0	 3	 0.001	 15.512	 786.72;
	 2	 0	 0	 3	 0.001	 17.009	 752.85;
	 2	 0	 0	 3	 0.002	 18.671	 236.13;
	 2	 0	 0	 3	 0.002	 18.671	 1264.89;
	 2	 0	 0	 3	 0.001	 16.343	 1070.74;
	 2	 0	 0	 3	 0.001	 16.343	 1070.74;
	 2	 0	 0	 3	 0.001	 16.343	 1070.74;
	 2	 0	 0	 3	 0.001	 16.343	 1070.74;
	 2	 0	 0	 3	 0.001	 17.967	 3859;
	 2	 0	 0	 3	 0.001	 17.967	 3859;
	 2	 0	 0	 3	 0.001	 17.967	 3859;
	 2	 0	 0	 3	 0.001	 17.967	 3859;
	 2	 0	 0	 3	 0.001	 15.037	 624.45;
	 2	 0	 0	 3	 0.001	 15.954	 937.8;
	 2	 0	 0	 3	 0.001	 15.954	 937.8;
	 2	 0	 0	 3	 0.001	 15.954	 937.8;
	 2	 0	 0	 3	 0.001	 15.416	 754.05;
	 2	 0	 0	 3	 0.001	 15.437	 760.91;
	 2	 0	 0	 3	 0.001	 15.437	 760.91;
	 2	 0	 0	 3	 0.001	 15.437	 760.91;
	 2	 0	 0	 3	 0.001	 15.437	 760.91;
	 2	 0	 0	 3	 0.001	 15.437	 760.91;
	 2	 0	 0	 3	 0.001	 15.437	 760.91;
	 2	 0	 0	 3	 0.001	 15.772	 875.49;
	 2	 0	 0	 3	 0.001	 15.772	 875.49;
	 2	 0	 0	 3	 0.001	 15.772	 875.49;
	 2	 0	 0	 3	 0.001	 15.772	 875.49;
	 2	 0	 0	 3	 0.001	 15.772	 875.49;
	 2	 0	 0	 3	 0.001	 17.347	 2926.93;
	 2	 0	 0	 3	 0.001	 15.282	 708;
	 2	 0	 0	 3	 0.001	 15.282	 708;
	 2	 0	 0	 3	 0.001	 15.282	 708;
	 2	 0	 0	 3	 0.001	 15.282	 708;
	 2	 0	 0	 3	 0.001	 15.598	 816;
	 2	 0	 0	 3	 0.001	 16.924	 1356.09;
	 2	 0	 0	 3	 0.001	 15.353	 732.3;
	 2	 0	 0	 3	 0.001	 15.353	 732.3;
	 2	 0	 0	 3	 0.001	 14.996	 610.2;
	 2	 0	 0	 3	 0.001	 15.721	 858.3;
	 2	 0	 0	 3	 0.001	 15.721	 858.3;
	 2	 0	 0	 3	 0.001	 15.459	 768.75;
	 2	 0	 0	 3	 0.001	 15.459	 768.75;
	 2	 0	 0	 3	 0.001	 15.459	 768.75;
	 2	 0	 0	 3	 0.001	 15.459	 768.75;
	 2	 0	 0	 3	 0.001	 15.804	 886.65;
	 2	 0	 0	 3	 0.001	 15.721	 858.3;
	 2	 0	 0	 3	 0.001	 15.721	 858.3;
	 2	 0	 0	 3	 0.001	 15.721	 858.3;
	 2	 0	 0	 3	 0.001	 15.407	 750.78;
	 2	 0	 0	 3	 0.001	 15.536	 795;
	 2	 0	 0	 3	 0.001	 15.536	 795;
	 2	 0	 0	 3	 0.001	 15.407	 750.78;
	 2	 0	 0	 3	 0.001	 15.407	 750.78;
	 2	 0	 0	 3	 0.001	 15.407	 750.78;
	 2	 0	 0	 3	 0.001	 15.407	 750.78;
	 2	 0	 0	 3	 0.001	 15.407	 750.78;
	 2	 0	 0	 3	 0.001	 15.295	 712.5;
	 2	 0	 0	 3	 0.001	 15.321	 721.5;
	 2	 0	 0	 3	 0.001	 15.017	 617.55;
	 2	 0	 0	 3	 0.002	 19.422	 952.4;
	 2	 0	 0	 3	 0.002	 19.422	 952.4;
	 2	 0	 0	 3	 0.002	 19.422	 952.4;
	 2	 0	 0	 3	 0.002	 19.422	 952.4;
];


% -------------------- mpc_regionR2 --------------------

mpc_regionR2.version = '2';
mpc_regionR2.baseMVA = 100.0000;
mpc_regionR2.bus = [
%	bus_i       type        Pd          Qd          Gs          Bs          area        Vm          Va          baseKV      zone        Vmax        Vmin        
	 1	 1	 127.29	 36.07	 0	 0	 4	 1	 0	 115	 19	 1.1	 0.9;
	 2	 1	 2.75	 0.78	 0	 0	 4	 1	 0	 115	 20	 1.1	 0.9;
	 3	 1	 183.66	 52.04	 0	 0	 4	 1	 0	 115	 19	 1.1	 0.9;
	 4	 1	 0	 0	 0	 0	 4	 1	 0	 115	 21	 1.1	 0.9;
	 5	 2	 0	 0	 0	 0	 4	 1	 0	 20	 21	 1.1	 0.9;
	 6	 1	 16.05	 4.55	 0	 0	 4	 1	 0	 115	 19	 1.1	 0.9;
	 7	 1	 13.74	 3.89	 0	 50	 4	 1	 0	 115	 19	 1.1	 0.9;
	 8	 1	 92.35	 26.17	 0	 0	 4	 1	 0	 115	 19	 1.1	 0.9;
	 9	 1	 135.83	 38.48	 0	 0	 4	 1	 0	 115	 19	 1.1	 0.9;
	 10	 1	 31.97	 9.06	 0	 0	 4	 1	 0	 115	 19	 1.1	 0.9;
	 11	 1	 65.12	 18.45	 0	 0	 4	 1	 0	 115	 19	 1.1	 0.9;
	 12	 1	 2.75	 0.78	 0	 0	 4	 1	 0	 115	 20	 1.1	 0.9;
	 13	 1	 37.64	 10.66	 0	 0	 4	 1	 0	 115	 19	 1.1	 0.9;
	 14	 1	 0	 0	 0	 0	 4	 1	 0	 230	 19	 1.1	 0.9;
	 15	 1	 225.66	 63.94	 0	 342.33	 4	 1	 0	 115	 19	 1.1	 0.9;
	 16	 1	 0	 0	 0	 0	 4	 1	 0	 230	 19	 1.1	 0.9;
	 17	 1	 215.18	 60.97	 0	 0	 4	 1	 0	 115	 19	 1.1	 0.9;
	 18	 1	 2.47	 0.7	 0	 0	 4	 1	 0	 115	 19	 1.1	 0.9;
	 19	 1	 0	 0	 0	 0	 4	 1	 0	 115	 19	 1.1	 0.9;
	 20	 2	 0	 0	 0	 0	 4	 1	 0	 13.8	 19	 1.1	 0.9;
	 21	 2	 0	 0	 0	 0	 4	 1	 0	 13.8	 19	 1.1	 0.9;
	 22	 2	 0	 0	 0	 0	 4	 1	 0	 13.8	 19	 1.1	 0.9;
	 23	 1	 13.1	 3.71	 0	 0	 4	 1	 0	 115	 19	 1.1	 0.9;
	 24	 1	 0	 0	 0	 0	 4	 1	 0	 115	 19	 1.1	 0.9;
	 25	 2	 0	 0	 0	 0	 4	 1	 0	 13.8	 19	 1.1	 0.9;
	 26	 1	 0.11	 0.03	 0	 0	 4	 1	 0	 115	 19	 1.1	 0.9;
	 27	 1	 191.53	 54.27	 0	 145.13	 4	 1	 0	 115	 19	 1.1	 0.9;
	 28	 1	 159.46	 45.18	 0	 0	 4	 1	 0	 115	 19	 1.1	 0.9;
	 29	 1	 27.99	 7.93	 0	 0	 4	 1	 0	 115	 19	 1.1	 0.9;
	 30	 1	 0	 0	 0	 0	 4	 1	 0	 230	 19	 1.1	 0.9;
	 31	 1	 281.45	 79.75	 0	 0	 4	 1	 0	 115	 19	 1.1	 0.9;
	 32	 1	 0	 0	 0	 0	 4	 1	 0	 230	 19	 1.1	 0.9;
	 33	 1	 0	 0	 0	 0	 4	 1	 0	 115	 19	 1.1	 0.9;
	 34	 2	 0	 0	 0	 0	 4	 1	 0	 24	 19	 1.1	 0.9;
	 35	 2	 0	 0	 0	 0	 4	 1	 0	 24	 19	 1.1	 0.9;
	 36	 2	 0	 0	 0	 0	 4	 1	 0	 24	 19	 1.1	 0.9;
	 37	 1	 171.21	 48.51	 0	 0	 4	 1	 0	 115	 19	 1.1	 0.9;
	 38	 1	 19.87	 5.63	 0	 95.16	 4	 1	 0	 115	 19	 1.1	 0.9;
	 39	 1	 212.52	 60.21	 0	 278.42	 4	 1	 0	 115	 19	 1.1	 0.9;
	 40	 1	 8.6	 2.44	 0	 0	 4	 1	 0	 115	 19	 1.1	 0.9;
	 41	 2	 0	 0	 0	 0	 4	 1	 0	 13.8	 19	 1.1	 0.9;
	 42	 2	 0	 0	 0	 0	 4	 1	 0	 13.8	 19	 1.1	 0.9;
	 43	 2	 0	 0	 0	 0	 4	 1	 0	 13.8	 19	 1.1	 0.9;
	 44	 2	 0	 0	 0	 0	 4	 1	 0	 13.8	 19	 1.1	 0.9;
	 45	 2	 0	 0	 0	 0	 4	 1	 0	 13.8	 19	 1.1	 0.9;
	 46	 2	 0	 0	 0	 0	 4	 1	 0	 13.8	 19	 1.1	 0.9;
	 47	 2	 0	 0	 0	 0	 4	 1	 0	 13.8	 19	 1.1	 0.9;
	 48	 2	 0	 0	 0	 0	 4	 1	 0	 13.8	 19	 1.1	 0.9;
	 49	 2	 0	 0	 0	 0	 4	 1	 0	 13.8	 19	 1.1	 0.9;
	 50	 1	 24.17	 6.85	 0	 0	 4	 1	 0	 115	 19	 1.1	 0.9;
	 51	 1	 189.88	 53.8	 0	 120	 4	 1	 0	 115	 19	 1.1	 0.9;
	 52	 1	 37.55	 10.64	 0	 0	 4	 1	 0	 115	 19	 1.1	 0.9;
	 53	 1	 118.36	 33.54	 0	 0	 4	 1	 0	 115	 19	 1.1	 0.9;
	 54	 1	 57.35	 16.25	 0	 0	 4	 1	 0	 115	 19	 1.1	 0.9;
	 55	 1	 104.08	 29.49	 0	 0	 4	 1	 0	 115	 19	 1.1	 0.9;
	 56	 1	 5.59	 1.58	 0	 0	 4	 1	 0	 115	 21	 1.1	 0.9;
	 57	 1	 55.57	 15.75	 0	 0	 4	 1	 0	 115	 19	 1.1	 0.9;
	 58	 1	 4.11	 1.16	 0	 50	 4	 1	 0	 115	 19	 1.1	 0.9;
	 59	 1	 146.11	 41.4	 0	 150	 4	 1	 0	 115	 19	 1.1	 0.9;
	 60	 1	 24.38	 6.91	 0	 0	 4	 1	 0	 115	 19	 1.1	 0.9;
	 61	 1	 127.38	 36.09	 0	 0	 4	 1	 0	 115	 19	 1.1	 0.9;
	 62	 1	 123.51	 35	 0	 70	 4	 1	 0	 115	 19	 1.1	 0.9;
	 63	 1	 0	 0	 0	 0	 4	 1	 0	 230	 21	 1.1	 0.9;
	 64	 1	 0	 0	 0	 60.3	 4	 1	 0	 115	 21	 1.1	 0.9;
	 65	 2	 0	 0	 0	 0	 4	 1	 0	 13.8	 21	 1.1	 0.9;
	 66	 1	 0	 0	 0	 0	 4	 1	 0	 230	 20	 1.1	 0.9;
	 67	 1	 193.64	 54.87	 0	 92.09	 4	 1	 0	 115	 20	 1.1	 0.9;
	 68	 1	 0	 0	 0	 0	 4	 1	 0	 230	 21	 1.1	 0.9;
	 69	 1	 0	 0	 0	 0	 4	 1	 0	 115	 21	 1.1	 0.9;
	 70	 2	 0	 0	 0	 0	 4	 1	 0	 18	 21	 1.1	 0.9;
	 71	 1	 26.32	 7.46	 0	 0	 4	 1	 0	 115	 19	 1.1	 0.9;
	 72	 1	 19.45	 5.51	 0	 0	 4	 1	 0	 115	 19	 1.1	 0.9;
	 73	 1	 104.67	 29.66	 0	 0	 4	 1	 0	 115	 19	 1.1	 0.9;
	 74	 1	 2.03	 0.57	 0	 0	 4	 1	 0	 115	 19	 1.1	 0.9;
	 75	 1	 0	 0	 0	 0	 4	 1	 0	 115	 21	 1.1	 0.9;
	 76	 2	 0	 0	 0	 0	 4	 1	 0	 13.8	 21	 1.1	 0.9;
	 77	 1	 5.31	 1.5	 0	 0	 4	 1	 0	 115	 19	 1.1	 0.9;
	 78	 1	 167.63	 47.5	 0	 100	 4	 1	 0	 115	 19	 1.1	 0.9;
	 79	 2	 0	 0	 0	 0	 4	 1	 0	 230	 19	 1.1	 0.9;
	 80	 1	 0	 0	 0	 0	 4	 1	 0	 115	 19	 1.1	 0.9;
	 81	 1	 37.84	 10.72	 0	 20.63	 4	 1	 0	 115	 19	 1.1	 0.9;
	 82	 1	 37.06	 10.5	 0	 53.8	 4	 1	 0	 115	 19	 1.1	 0.9;
	 83	 1	 46.43	 13.16	 0	 0	 4	 1	 0	 115	 19	 1.1	 0.9;
	 84	 2	 0	 0	 0	 0	 4	 1	 0	 230	 19	 1.1	 0.9;
	 85	 1	 178.22	 50.5	 0	 0	 4	 1	 0	 115	 19	 1.1	 0.9;
	 86	 2	 0	 0	 0	 0	 4	 1	 0	 115	 19	 1.1	 0.9;
	 87	 1	 0	 0	 0	 0	 4	 1	 0	 230	 20	 1.1	 0.9;
	 88	 1	 0	 0	 0	 0	 4	 1	 0	 115	 20	 1.1	 0.9;
];

mpc_regionR2.gen = [
%	bus         Pg          Qg          Qmax        Qmin        Vg          mBase       status      Pmax        Pmin        Pc1         Pc2         Qc1min      Qc1max      Qc2min      Qc2max      ramp_agc    ramp_10     ramp_30     ramp_q      apf         
	 5	 151.2	 6.955	 42.94	-29.03	 1	 241.92	 1	 151.2	 151.2	 0	 0	 0	 0	 0	 0	 0	 0	 0	 0	 201.6;
	 20	 93.4	 17.16	 35.86	-1.54	 1	 37.8	 1	 93.4	 93.4	 0	 0	 0	 0	 0	 0	 0	 0	 0	 0	 31.5;
	 21	 28.5	 5.235	 10.94	-0.47	 1	 11.52	 1	 28.5	 28.5	 0	 0	 0	 0	 0	 0	 0	 0	 0	 0	 9.6;
	 22	 27.48	 35.935	 75.1	-3.23	 1	 79.2	 1	 27.48	 27.48	 0	 0	 0	 0	 0	 0	 0	 0	 0	 0	 66;
	 25	 150	 6.9	 42.6	-28.8	 1	 240	 1	 150	 150	 0	 0	 0	 0	 0	 0	 0	 0	 0	 0	 200;
	 34	 0	 0	 89.75	-19.57	 1	 211.6	 0	 176.33	 52.9	 0	 0	 0	 0	 0	 0	 0	 0	 0	 0	 176.33;
	 35	 114.615	 35.09	 89.75	-19.57	 1	 211.6	 1	 176.33	 52.9	 0	 0	 0	 0	 0	 0	 0	 0	 0	 0	 176.33;
	 36	 114.615	 35.09	 89.75	-19.57	 1	 211.6	 1	 176.33	 52.9	 0	 0	 0	 0	 0	 0	 0	 0	 0	 0	 176.33;
	 41	 0	 0	 0.65	-0.17	 1	 1.68	 0	 1.4	 0.42	 0	 0	 0	 0	 0	 0	 0	 0	 0	 0	 1.4;
	 42	 15.275	 4.04	 10.95	-2.87	 1	 28.2	 1	 23.5	 7.05	 0	 0	 0	 0	 0	 0	 0	 0	 0	 0	 23.5;
	 43	 0	 0	 3.54	-0.93	 1	 9.12	 0	 7.6	 2.28	 0	 0	 0	 0	 0	 0	 0	 0	 0	 0	 7.6;
	 44	 18.2	 4.815	 13.05	-3.42	 1	 33.6	 1	 28	 8.4	 0	 0	 0	 0	 0	 0	 0	 0	 0	 0	 28;
	 45	 18.2	 4.815	 13.05	-3.42	 1	 33.6	 1	 28	 8.4	 0	 0	 0	 0	 0	 0	 0	 0	 0	 0	 28;
	 46	 18.2	 4.815	 13.05	-3.42	 1	 33.6	 1	 28	 8.4	 0	 0	 0	 0	 0	 0	 0	 0	 0	 0	 28;
	 47	 0	 0	 13.05	-3.42	 1	 33.6	 0	 28	 8.4	 0	 0	 0	 0	 0	 0	 0	 0	 0	 0	 28;
	 48	 18.2	 4.815	 13.05	-3.42	 1	 33.6	 1	 28	 8.4	 0	 0	 0	 0	 0	 0	 0	 0	 0	 0	 28;
	 49	 0	 0	 13.05	-3.42	 1	 33.6	 0	 28	 8.4	 0	 0	 0	 0	 0	 0	 0	 0	 0	 0	 28;
	 65	 141	 6.485	 40.04	-27.07	 1	 225.6	 1	 141	 141	 0	 0	 0	 0	 0	 0	 0	 0	 0	 0	 188;
	 70	 212.4	 9.77	 60.32	-40.78	 1	 339.84	 1	 212.4	 212.4	 0	 0	 0	 0	 0	 0	 0	 0	 0	 0	 283.2;
	 76	 150.75	 6.935	 42.81	-28.94	 1	 241.2	 1	 150.75	 150.75	 0	 0	 0	 0	 0	 0	 0	 0	 0	 0	 201;
	 79	 152.25	 7.005	 43.24	-29.23	 1	 243.6	 1	 152.25	 152.25	 0	 0	 0	 0	 0	 0	 0	 0	 0	 0	 203;
	 84	 48.75	 14.92	 38.17	-8.33	 1	 90	 1	 75	 22.5	 0	 0	 0	 0	 0	 0	 0	 0	 0	 0	 75;
	 84	 119.45	 36.57	 93.54	-20.4	 1	 220.52	 1	 183.77	 55.13	 0	 0	 0	 0	 0	 0	 0	 0	 0	 0	 183.77;
	 84	 0	 0	 12.22	-2.66	 1	 28.8	 0	 24	 7.2	 0	 0	 0	 0	 0	 0	 0	 0	 0	 0	 24;
	 84	 39.65	 12.14	 31.05	-6.77	 1	 73.2	 1	 61	 18.3	 0	 0	 0	 0	 0	 0	 0	 0	 0	 0	 61;
	 84	 6.76	 2.07	 5.29	-1.15	 1	 12.48	 1	 10.4	 3.12	 0	 0	 0	 0	 0	 0	 0	 0	 0	 0	 10.4;
	 84	 173.55	 53.13	 135.9	-29.64	 1	 320.4	 1	 267	 80.1	 0	 0	 0	 0	 0	 0	 0	 0	 0	 0	 267;
	 84	 173.55	 53.13	 135.9	-29.64	 1	 320.4	 1	 267	 80.1	 0	 0	 0	 0	 0	 0	 0	 0	 0	 0	 267;
	 84	 173.55	 53.13	 135.9	-29.64	 1	 320.4	 1	 267	 80.1	 0	 0	 0	 0	 0	 0	 0	 0	 0	 0	 267;
	 84	 119.45	 36.57	 93.54	-20.4	 1	 220.52	 1	 183.77	 55.13	 0	 0	 0	 0	 0	 0	 0	 0	 0	 0	 183.77;
	 84	 119.45	 36.57	 93.54	-20.4	 1	 220.52	 1	 183.77	 55.13	 0	 0	 0	 0	 0	 0	 0	 0	 0	 0	 183.77;
	 86	 151.2	 6.955	 42.94	-29.03	 1	 241.92	 1	 151.2	 151.2	 0	 0	 0	 0	 0	 0	 0	 0	 0	 0	 201.6;
];

mpc_regionR2.branch = [
%	fbus        tbus        r           x           b           rateA       rateB       rateC       ratio       angle       status      angmin      angmax      
	 1	 15	 0.01209	 0.07809	 0.0149	 250	 250	 250	 0	 0	 1	-30	 30;
	 51	 1	 0.00838	 0.05414	 0.01033	 221	 221	 221	 0	 0	 1	-30	 30;
	 51	 1	 0.00838	 0.05414	 0.01033	 221	 221	 221	 0	 0	 1	-30	 30;
	 62	 1	 0.01296	 0.09028	 0.01476	 221	 221	 221	 0	 0	 1	-30	 30;
	 2	 6	 0.0269	 0.11766	 0.01792	 149	 149	 149	 0	 0	 1	-30	 30;
	 2	 88	 0.00624	 0.04344	 0.0071	 221	 221	 221	 0	 0	 1	-30	 30;
	 3	 11	 0.00348	 0.02089	 0.00284	 221	 221	 221	 0	 0	 1	-30	 30;
	 3	 13	 0.00873	 0.03892	 0.00571	 149	 149	 149	 0	 0	 1	-30	 30;
	 3	 59	 0.00469	 0.02091	 0.00307	 221	 221	 221	 0	 0	 1	-30	 30;
	 5	 4	 0.00242	 0.06944	 0	 131	 131	 131	 1	 0	 1	-30	 30;
	 5	 4	 0.00315	 0.06944	 0	 131	 131	 131	 1	 0	 1	-30	 30;
	 69	 4	 0.00542	 0.03498	 0.00667	 221	 221	 221	 0	 0	 1	-30	 30;
	 69	 4	 0.00542	 0.03498	 0.00667	 221	 221	 221	 0	 0	 1	-30	 30;
	 75	 4	 0.00315	 0.02032	 0.00388	 221	 221	 221	 0	 0	 1	-30	 30;
	 75	 4	 0.00315	 0.02032	 0.00388	 221	 221	 221	 0	 0	 1	-30	 30;
	 6	 81	 0.03112	 0.13615	 0.02073	 149	 149	 149	 0	 0	 1	-30	 30;
	 13	 7	 0.01625	 0.09759	 0.01324	 221	 221	 221	 0	 0	 1	-30	 30;
	 7	 51	 0.02485	 0.14192	 0.02133	 221	 221	 221	 0	 0	 1	-30	 30;
	 7	 58	 0.01296	 0.07781	 0.01056	 98	 98	 98	 0	 0	 1	-30	 30;
	 7	 78	 0.02502	 0.11152	 0.01635	 221	 221	 221	 0	 0	 1	-30	 30;
	 8	 40	 0.01437	 0.09281	 0.01771	 250	 250	 250	 0	 0	 1	-30	 30;
	 53	 8	 0.02623	 0.06413	 0.0084	 98	 98	 98	 0	 0	 1	-30	 30;
	 8	 59	 0.00312	 0.01784	 0.00268	 98	 98	 98	 0	 0	 1	-30	 30;
	 9	 28	 0.00919	 0.06276	 0.01068	 221	 221	 221	 0	 0	 1	-30	 30;
	 9	 28	 0.00919	 0.06276	 0.01068	 221	 221	 221	 0	 0	 1	-30	 30;
	 9	 58	 0.02026	 0.04952	 0.00648	 98	 98	 98	 0	 0	 1	-30	 30;
	 40	 10	 0.01219	 0.05329	 0.00812	 149	 149	 149	 0	 0	 1	-30	 30;
	 10	 77	 0.00965	 0.04299	 0.0063	 149	 149	 149	 0	 0	 1	-30	 30;
	 11	 39	 0.00276	 0.01883	 0.0032	 221	 221	 221	 0	 0	 1	-30	 30;
	 11	 39	 0.00276	 0.01883	 0.0032	 221	 221	 221	 0	 0	 1	-30	 30;
	 12	 18	 0.04121	 0.18028	 0.02746	 149	 149	 149	 0	 0	 1	-30	 30;
	 67	 12	 0.02053	 0.0898	 0.01368	 149	 149	 149	 0	 0	 1	-30	 30;
	 13	 71	 0.01506	 0.10289	 0.01751	 221	 221	 221	 0	 0	 1	-30	 30;
	 15	 14	 0.00078	 0.02871	 0	 384	 384	 384	 1	 0	 1	-30	 30;
	 15	 14	 0.00078	 0.02871	 0	 384	 384	 384	 1	 0	 1	-30	 30;
	 32	 14	 0.00022	 0.00224	 0.00764	 750	 750	 750	 0	 0	 1	-30	 30;
	 32	 14	 0.00022	 0.00224	 0.00764	 750	 750	 750	 0	 0	 1	-30	 30;
	 14	 68	 0.00765	 0.07956	 0.27111	 750	 750	 750	 0	 0	 1	-30	 30;
	 14	 68	 0.00765	 0.07956	 0.27111	 750	 750	 750	 0	 0	 1	-30	 30;
	 14	 68	 0.00765	 0.07956	 0.27111	 750	 750	 750	 0	 0	 1	-30	 30;
	 33	 15	 0.00148	 0.00957	 0.00183	 250	 250	 250	 0	 0	 1	-30	 30;
	 33	 15	 0.00148	 0.00957	 0.00183	 250	 250	 250	 0	 0	 1	-30	 30;
	 33	 15	 0.00148	 0.00957	 0.00183	 250	 250	 250	 0	 0	 1	-30	 30;
	 37	 15	 0.00457	 0.03186	 0.00521	 300	 300	 300	 0	 0	 1	-30	 30;
	 37	 15	 0.00457	 0.03186	 0.00521	 300	 300	 300	 0	 0	 1	-30	 30;
	 37	 15	 0.00457	 0.03186	 0.00521	 300	 300	 300	 0	 0	 1	-30	 30;
	 17	 16	 0.00056	 0.03546	 0	 442	 442	 442	 1	 0	 1	-30	 30;
	 17	 16	 0.00056	 0.03546	 0	 442	 442	 442	 1	 0	 1	-30	 30;
	 17	 16	 0.00056	 0.03546	 0	 442	 442	 442	 1	 0	 1	-30	 30;
	 32	 16	 0.0019	 0.01971	 0.06717	 820	 820	 820	 0	 0	 1	-30	 30;
	 32	 16	 0.0019	 0.01971	 0.06717	 820	 820	 820	 0	 0	 1	-30	 30;
	 39	 17	 0.00312	 0.02015	 0.00384	 250	 250	 250	 0	 0	 1	-30	 30;
	 39	 17	 0.00312	 0.02015	 0.00384	 250	 250	 250	 0	 0	 1	-30	 30;
	 53	 17	 0.00298	 0.01925	 0.00367	 221	 221	 221	 0	 0	 1	-30	 30;
	 53	 17	 0.00298	 0.01925	 0.00367	 221	 221	 221	 0	 0	 1	-30	 30;
	 18	 57	 0.01218	 0.05428	 0.00796	 149	 149	 149	 0	 0	 1	-30	 30;
	 20	 19	 0.00353	 0.16159	 0	 120	 120	 120	 1	 0	 1	-30	 30;
	 21	 19	 0.00669	 0.2458	 0	 40	 40	 40	 1	 0	 1	-30	 30;
	 22	 19	 0.00557	 0.09157	 0	 250	 250	 250	 1	 0	 1	-30	 30;
	 19	 57	 0.00264	 0.01804	 0.00307	 221	 221	 221	 0	 0	 1	-30	 30;
	 81	 19	 0.03117	 0.13891	 0.02037	 149	 149	 149	 0	 0	 1	-30	 30;
	 23	 71	 0.00408	 0.02784	 0.00474	 221	 221	 221	 0	 0	 1	-30	 30;
	 23	 72	 0.00335	 0.02332	 0.00381	 221	 221	 221	 0	 0	 1	-30	 30;
	 23	 72	 0.00335	 0.02332	 0.00381	 221	 221	 221	 0	 0	 1	-30	 30;
	 25	 24	 0.00389	 0.07962	 0	 130	 130	 130	 1	 0	 1	-30	 30;
	 25	 24	 0.00389	 0.07962	 0	 130	 130	 130	 1	 0	 1	-30	 30;
	 38	 24	 0.00927	 0.04053	 0.00617	 149	 149	 149	 0	 0	 1	-30	 30;
	 24	 86	 0.00379	 0.02643	 0.00432	 221	 221	 221	 0	 0	 1	-30	 30;
	 24	 86	 0.00379	 0.02643	 0.00432	 221	 221	 221	 0	 0	 1	-30	 30;
	 26	 69	 0.0091	 0.06213	 0.01057	 221	 221	 221	 0	 0	 1	-30	 30;
	 26	 69	 0.0091	 0.06213	 0.01057	 221	 221	 221	 0	 0	 1	-30	 30;
	 26	 83	 0.02289	 0.14783	 0.0282	 221	 221	 221	 0	 0	 1	-30	 30;
	 26	 83	 0.02289	 0.14783	 0.0282	 221	 221	 221	 0	 0	 1	-30	 30;
	 27	 29	 0.013	 0.05797	 0.0085	 149	 149	 149	 0	 0	 1	-30	 30;
	 27	 53	 0.00316	 0.02043	 0.0039	 221	 221	 221	 0	 0	 1	-30	 30;
	 27	 53	 0.00316	 0.02043	 0.0039	 221	 221	 221	 0	 0	 1	-30	 30;
	 55	 28	 0.00346	 0.02362	 0.00402	 300	 300	 300	 0	 0	 1	-30	 30;
	 86	 28	 0.00473	 0.03294	 0.00539	 300	 300	 300	 0	 0	 1	-30	 30;
	 86	 28	 0.00473	 0.03294	 0.00539	 300	 300	 300	 0	 0	 1	-30	 30;
	 86	 28	 0.00473	 0.03294	 0.00539	 300	 300	 300	 0	 0	 1	-30	 30;
	 29	 51	 0.00973	 0.05555	 0.00835	 98	 98	 98	 0	 0	 1	-30	 30;
	 29	 82	 0.01855	 0.08268	 0.01212	 149	 149	 149	 0	 0	 1	-30	 30;
	 31	 30	 0.00121	 0.04292	 0	 353	 353	 353	 1	 0	 1	-30	 30;
	 31	 30	 0.00121	 0.04292	 0	 353	 353	 353	 1	 0	 1	-30	 30;
	 30	 79	 0.002	 0.02	 0.07	 443	 443	 443	 0	 0	 1	-30	 30;
	 30	 84	 0.00137	 0.01421	 0.04843	 750	 750	 750	 0	 0	 1	-30	 30;
	 30	 84	 0.00137	 0.01421	 0.04843	 750	 750	 750	 0	 0	 1	-30	 30;
	 52	 31	 0.009	 0.0401	 0.00588	 221	 221	 221	 0	 0	 1	-30	 30;
	 33	 32	 0.00046	 0.01717	 0	 397	 397	 397	 1	 0	 1	-30	 30;
	 33	 32	 0.00046	 0.01717	 0	 397	 397	 397	 1	 0	 1	-30	 30;
	 34	 32	 0.0015	 0.06318	 0	 220	 220	 220	 1	 0	 1	-30	 30;
	 35	 32	 0.0015	 0.05994	 0	 220	 220	 220	 1	 0	 1	-30	 30;
	 36	 32	 0.00135	 0.06817	 0	 220	 220	 220	 1	 0	 1	-30	 30;
	 66	 32	 0.006	 0.06	 0.115	 548	 548	 548	 0	 0	 1	-30	 30;
	 32	 79	 0.01015	 0.07248	 0.13214	 750	 750	 750	 0	 0	 1	-30	 30;
	 84	 32	 0.0062	 0.06449	 0.21975	 820	 820	 820	 0	 0	 1	-30	 30;
	 72	 33	 0.01013	 0.05786	 0.00869	 221	 221	 221	 0	 0	 1	-30	 30;
	 37	 73	 0.00338	 0.02308	 0.00393	 250	 250	 250	 0	 0	 1	-30	 30;
	 37	 73	 0.00338	 0.02308	 0.00393	 250	 250	 250	 0	 0	 1	-30	 30;
	 38	 52	 0.02192	 0.09592	 0.01461	 149	 149	 149	 0	 0	 1	-30	 30;
	 54	 38	 0.01641	 0.07179	 0.01093	 149	 149	 149	 0	 0	 1	-30	 30;
	 41	 40	 0.01451	 0.58764	 0	 28	 28	 28	 1	 0	 1	-30	 30;
	 42	 40	 0.00427	 0.20036	 0	 37	 37	 37	 1	 0	 1	-30	 30;
	 43	 40	 0.0034	 0.12539	 0	 48	 48	 48	 1	 0	 1	-30	 30;
	 44	 40	 0.01405	 0.24296	 0	 40	 40	 40	 1	 0	 1	-30	 30;
	 45	 40	 0.00238	 0.09215	 0	 40	 40	 40	 1	 0	 1	-30	 30;
	 46	 40	 0.0077	 0.18665	 0	 40	 40	 40	 1	 0	 1	-30	 30;
	 47	 40	 0.01248	 0.29442	 0	 40	 40	 40	 1	 0	 1	-30	 30;
	 48	 40	 0.00925	 0.21151	 0	 40	 40	 40	 1	 0	 1	-30	 30;
	 49	 40	 0.01041	 0.22475	 0	 40	 40	 40	 1	 0	 1	-30	 30;
	 40	 86	 0.01637	 0.06793	 0.01153	 149	 149	 149	 0	 0	 1	-30	 30;
	 61	 50	 0.00411	 0.02652	 0.00506	 300	 300	 300	 0	 0	 1	-30	 30;
	 61	 50	 0.00411	 0.02652	 0.00506	 300	 300	 300	 0	 0	 1	-30	 30;
	 50	 78	 0.00634	 0.04334	 0.00737	 250	 250	 250	 0	 0	 1	-30	 30;
	 50	 78	 0.00634	 0.04334	 0.00737	 250	 250	 250	 0	 0	 1	-30	 30;
	 54	 78	 0.02886	 0.11974	 0.02032	 149	 149	 149	 0	 0	 1	-30	 30;
...